32:0:0
     RDKit          3D

 67 71  0  0  1  0  0  0  0  0999 V2000
   -4.5690   -3.0686   15.6303 C   0  0  0  0  0  0  0  0  0  0  0  0
   -3.9120   -2.2161   14.7115 O   0  0  0  0  0  0  0  0  0  0  0  0
   -2.5446   -2.0659   14.8255 C   0  0  0  0  0  0  0  0  0  0  0  0
   -1.7457   -2.8272   15.7071 C   0  0  0  0  0  0  0  0  0  0  0  0
   -0.3699   -2.5830   15.8171 C   0  0  0  0  0  0  0  0  0  0  0  0
    0.2420   -1.5510   15.0769 C   0  0  0  0  0  0  0  0  0  0  0  0
    1.6147   -1.3351   15.2979 N   0  0  0  0  0  0  0  0  0  0  0  0
    2.5317   -0.4299   14.7280 C   0  0  0  0  0  0  0  0  0  0  0  0
    2.1990    0.3728   13.7514 N   0  0  0  0  0  0  0  0  0  0  0  0
    3.1266    1.2540   13.2308 C   0  0  0  0  0  0  0  0  0  0  0  0
    4.4276    1.2897   13.6772 C   0  0  0  0  0  0  0  0  0  0  0  0
    4.7713    0.4857   14.7190 N   0  0  0  0  0  0  0  0  0  0  0  0
    5.9179    0.3809   15.4777 C   0  0  0  0  0  0  0  0  0  0  0  0
    5.6115   -0.4991   16.4886 C   0  0  0  0  0  0  0  0  0  0  0  0
    4.3647   -1.0580   16.3206 N   0  0  0  0  0  0  0  0  0  0  0  0
    3.8361   -0.4121   15.2889 C   0  0  0  0  0  0  0  0  0  0  0  0
    2.6537    2.1640   12.1592 C   0  0  0  0  0  0  0  0  0  0  0  0
    3.5612    2.6683   11.1905 C   0  0  0  0  0  0  0  0  0  0  0  0
    3.1464    3.4950   10.1391 C   0  0  0  0  0  0  0  0  0  0  0  0
    1.7985    3.8484   10.0405 C   0  0  0  0  0  0  0  0  0  0  0  0
    0.8728    3.3955   11.0093 C   0  0  0  0  0  0  0  0  0  0  0  0
    1.2980    2.5500   12.0610 C   0  0  0  0  0  0  0  0  0  0  0  0
   -0.5637    3.7826   10.8855 C   0  0  0  0  0  0  0  0  0  0  0  0
   -1.2323    3.4158    9.9233 O   0  0  0  0  0  0  0  0  0  0  0  0
   -1.0036    4.5432   11.8960 N   0  0  0  0  0  0  0  0  0  0  0  0
   -2.2839    5.1121   12.1166 C   0  0  0  0  0  0  0  0  0  0  0  0
   -2.5587    5.4625   13.4463 C   0  0  0  0  0  0  0  0  0  0  0  0
   -3.8024    6.0042   13.8069 C   0  0  0  0  0  0  0  0  0  0  0  0
   -4.7766    6.2702   12.8162 C   0  0  0  0  0  0  0  0  0  0  0  0
   -4.4972    5.9228   11.4737 C   0  0  0  0  0  0  0  0  0  0  0  0
   -3.2648    5.3431   11.1200 C   0  0  0  0  0  0  0  0  0  0  0  0
   -6.1091    6.8454   13.2067 C   0  0  0  0  0  0  0  0  0  0  0  0
   -6.6566    6.4036   14.2177 O   0  0  0  0  0  0  0  0  0  0  0  0
   -6.5356    7.8462   12.3969 N   0  0  0  0  0  0  0  0  0  0  0  0
   -7.9333    8.6305   12.6205 S   0  0  0  0  0  0  0  0  0  0  0  0
   -8.2975    9.4840   11.4774 O   0  0  0  0  0  0  0  0  0  0  0  0
   -8.0340    9.2339   13.9633 O   0  0  0  0  0  0  0  0  0  0  0  0
   -9.1520    7.2784   12.6011 C   0  0  0  0  0  0  0  0  0  0  0  0
   -0.5515   -0.8051   14.1758 C   0  0  0  0  0  0  0  0  0  0  0  0
   -1.9363   -1.0558   14.0399 C   0  0  0  0  0  0  0  0  0  0  0  0
   -2.7398   -0.3183   13.1980 O   0  0  0  0  0  0  0  0  0  0  0  0
   -2.1719    0.7290   12.4148 C   0  0  0  0  0  0  0  0  0  0  0  0
   -5.6358   -3.0298   15.4270 H   0  0  0  0  0  0  0  0  0  0  0  0
   -4.2375   -4.0967   15.5199 H   0  0  0  0  0  0  0  0  0  0  0  0
   -4.4004   -2.7327   16.6515 H   0  0  0  0  0  0  0  0  0  0  0  0
   -2.1675   -3.6003   16.3284 H   0  0  0  0  0  0  0  0  0  0  0  0
    0.2082   -3.1955   16.4972 H   0  0  0  0  0  0  0  0  0  0  0  0
    2.0165   -1.8605   16.0680 H   0  0  0  0  0  0  0  0  0  0  0  0
    5.1897    1.9619   13.3168 H   0  0  0  0  0  0  0  0  0  0  0  0
    6.7813    0.9935   15.2562 H   0  0  0  0  0  0  0  0  0  0  0  0
    6.1531   -0.7563   17.3656 H   0  0  0  0  0  0  0  0  0  0  0  0
    4.6028    2.3922   11.2237 H   0  0  0  0  0  0  0  0  0  0  0  0
    3.8623    3.8434    9.4097 H   0  0  0  0  0  0  0  0  0  0  0  0
    1.4702    4.4862    9.2350 H   0  0  0  0  0  0  0  0  0  0  0  0
    0.5869    2.1770   12.7906 H   0  0  0  0  0  0  0  0  0  0  0  0
   -0.3127    4.7363   12.6032 H   0  0  0  0  0  0  0  0  0  0  0  0
   -1.8223    5.2968   14.2261 H   0  0  0  0  0  0  0  0  0  0  0  0
   -3.9707    6.2536   14.8493 H   0  0  0  0  0  0  0  0  0  0  0  0
   -5.2396    6.0834   10.7098 H   0  0  0  0  0  0  0  0  0  0  0  0
   -3.0816    5.0897   10.0887 H   0  0  0  0  0  0  0  0  0  0  0  0
  -10.1437    7.6843   12.7848 H   0  0  0  0  0  0  0  0  0  0  0  0
   -8.9243    6.5602   13.3891 H   0  0  0  0  0  0  0  0  0  0  0  0
   -9.1139    6.7984   11.6238 H   0  0  0  0  0  0  0  0  0  0  0  0
   -0.0933   -0.0157   13.6136 H   0  0  0  0  0  0  0  0  0  0  0  0
   -2.9731    1.2131   11.8562 H   0  0  0  0  0  0  0  0  0  0  0  0
   -1.7015    1.4879   13.0395 H   0  0  0  0  0  0  0  0  0  0  0  0
   -1.4506    0.3376   11.6881 H   0  0  0  0  0  0  0  0  0  0  0  0
  1  2  1  0
  1 43  1  0
  1 44  1  0
  1 45  1  0
  2  3  1  0
  3  4  2  0
  3 40  1  0
  4  5  1  0
  4 46  1  0
  5  6  2  0
  5 47  1  0
  6  7  1  0
  6 39  1  0
  7  8  1  0
  7 48  1  0
  8  9  2  0
  8 16  1  0
  9 10  1  0
 10 11  2  0
 10 17  1  0
 11 12  1  0
 11 49  1  0
 12 13  1  0
 12 16  1  0
 13 14  2  0
 13 50  1  0
 14 15  1  0
 14 51  1  0
 15 16  2  0
 17 18  2  0
 17 22  1  0
 18 19  1  0
 18 52  1  0
 19 20  2  0
 19 53  1  0
 20 21  1  0
 20 54  1  0
 21 22  2  0
 21 23  1  0
 22 55  1  0
 23 24  2  0
 23 25  1  0
 25 26  1  0
 25 56  1  0
 26 27  2  0
 26 31  1  0
 27 28  1  0
 27 57  1  0
 28 29  2  0
 28 58  1  0
 29 30  1  0
 29 32  1  0
 30 31  2  0
 30 59  1  0
 31 60  1  0
 32 33  2  0
 32 34  1  0
 34 35  1  0
 35 36  2  0
 35 37  2  0
 35 38  1  0
 38 61  1  0
 38 62  1  0
 38 63  1  0
 39 40  2  0
 39 64  1  0
 40 41  1  0
 41 42  1  0
 42 65  1  0
 42 66  1  0
 42 67  1  0
M  CHG  1  34  -1
M  END
>  <s_m_entry_id>  (1) 
1079

>  <IC50[nM]>  (1) 
2.2

>  <s_m_Source_Path>  (1) 
/projects/mai/users/kmzp800_harry/pmx_colab/docking_jobs/syk

>  <s_m_Source_File>  (1) 
tnks2_lig.sdf

>  <i_m_Source_File_Index>  (1) 
36

>  <s_m_job_name>  (1) 
glide-dock_SP_syk_mcs

>  <r_i_docking_score>  (1) 
-8.60968787938805

>  <r_i_glide_gscore>  (1) 
-8.60968787938805

>  <r_i_glide_emodel>  (1) 
-90.9199495882747

>  <index_string>  (1) 
32:0:0

$$$$
