8:0:0
     RDKit          3D

 41 43  0  0  1  0  0  0  0  0999 V2000
   41.3838   17.4863   11.5905 O   0  0  0  0  0  0  0  0  0  0  0  0
   40.5654   17.4656   12.5416 C   0  0  0  0  0  0  0  0  0  0  0  0
   39.3830   17.8848   12.4941 O   0  0  0  0  0  0  0  0  0  0  0  0
   41.0397   16.8882   13.8731 C   0  0  0  0  0  0  0  0  0  0  0  0
   42.2196   16.1243   13.6716 O   0  0  0  0  0  0  0  0  0  0  0  0
   42.4545   15.1929   14.6180 C   0  0  0  0  0  0  0  0  0  0  0  0
   41.8936   13.8945   14.6180 C   0  0  0  0  0  0  0  0  0  0  0  0
   40.6640   13.4711   13.2462 Br  0  0  0  0  0  0  0  0  0  0  0  0
   42.3285   13.0557   15.6225 C   0  0  0  0  0  0  0  0  0  0  0  0
   43.3984   13.9449   16.6744 S   0  0  0  0  0  0  0  0  0  0  0  0
   43.2700   15.3828   15.6950 C   0  0  0  0  0  0  0  0  0  0  0  0
   44.0100   16.5668   16.1199 C   0  0  0  0  0  0  0  0  0  0  0  0
   44.4288   16.6664   17.2918 O   0  0  0  0  0  0  0  0  0  0  0  0
   44.1834   17.4866   15.2935 O   0  0  0  0  0  0  0  0  0  0  0  0
   42.0699   11.6452   15.9329 C   0  0  0  0  0  0  0  0  0  0  0  0
   42.9823   10.8811   16.6999 C   0  0  0  0  0  0  0  0  0  0  0  0
   42.7272    9.5285   16.9952 C   0  0  0  0  0  0  0  0  0  0  0  0
   41.5730    8.9010   16.4938 C   0  0  0  0  0  0  0  0  0  0  0  0
   40.6686    9.6347   15.6937 C   0  0  0  0  0  0  0  0  0  0  0  0
   40.9093   10.9999   15.4623 C   0  0  0  0  0  0  0  0  0  0  0  0
   39.4965    9.0772   15.1204 N   0  0  0  0  0  0  0  0  0  0  0  0
   39.3275    7.8152   14.6821 C   0  0  0  0  0  0  0  0  0  0  0  0
   40.1758    6.9303   14.7745 O   0  0  0  0  0  0  0  0  0  0  0  0
   37.9746    7.5018   14.1084 C   0  0  0  0  0  0  0  0  0  0  0  0
   37.4649    6.1875   14.2140 C   0  0  0  0  0  0  0  0  0  0  0  0
   36.2093    5.8617   13.6689 C   0  0  0  0  0  0  0  0  0  0  0  0
   35.4540    6.8477   13.0101 C   0  0  0  0  0  0  0  0  0  0  0  0
   35.9534    8.1589   12.8937 C   0  0  0  0  0  0  0  0  0  0  0  0
   37.2143    8.4823   13.4276 C   0  0  0  0  0  0  0  0  0  0  0  0
   41.2432   17.7018   14.5705 H   0  0  0  0  0  0  0  0  0  0  0  0
   40.2374   16.2851   14.3011 H   0  0  0  0  0  0  0  0  0  0  0  0
   43.8943   11.3204   17.0771 H   0  0  0  0  0  0  0  0  0  0  0  0
   43.4287    8.9669   17.5935 H   0  0  0  0  0  0  0  0  0  0  0  0
   41.3998    7.8607   16.7259 H   0  0  0  0  0  0  0  0  0  0  0  0
   40.1818   11.5516   14.8973 H   0  0  0  0  0  0  0  0  0  0  0  0
   38.7595    9.7303   14.8930 H   0  0  0  0  0  0  0  0  0  0  0  0
   38.0376    5.4201   14.7163 H   0  0  0  0  0  0  0  0  0  0  0  0
   35.8288    4.8542   13.7580 H   0  0  0  0  0  0  0  0  0  0  0  0
   34.4950    6.5888   12.5959 H   0  0  0  0  0  0  0  0  0  0  0  0
   35.3812    8.9180   12.3812 H   0  0  0  0  0  0  0  0  0  0  0  0
   37.5883    9.4863   13.2944 H   0  0  0  0  0  0  0  0  0  0  0  0
  1  2  2  0
  2  3  1  0
  2  4  1  0
  4  5  1  0
  4 30  1  0
  4 31  1  0
  5  6  1  0
  6 11  2  0
  6  7  1  0
  7  8  1  0
  7  9  2  0
  9 10  1  0
  9 15  1  0
 10 11  1  0
 11 12  1  0
 12 13  2  0
 12 14  1  0
 15 20  1  0
 15 16  2  0
 16 17  1  0
 16 32  1  0
 17 18  2  0
 17 33  1  0
 18 19  1  0
 18 34  1  0
 19 20  2  0
 19 21  1  0
 20 35  1  0
 21 22  1  0
 21 36  1  0
 22 23  2  0
 22 24  1  0
 24 29  1  0
 24 25  2  0
 25 26  1  0
 25 37  1  0
 26 27  2  0
 26 38  1  0
 27 28  1  0
 27 39  1  0
 28 29  2  0
 28 40  1  0
 29 41  1  0
M  CHG  2   3  -1  14  -1
M  END
>  <s_m_entry_id>  (1) 
461

>  <i_f3d_flags>  (1) 
0

>  <r_epik_Ionization_Penalty>  (1) 
  0.0001

>  <r_epik_State_Penalty>  (1) 
  0.0000

>  <i_epik_Tot_Q>  (1) 
-2

>  <s_m_job_name>  (1) 
glide-dock_SP_ptp1b_no_cons

>  <r_lp_tautomer_probability>  (1) 
1

>  <r_i_docking_score>  (1) 
-8.5414458801921

>  <r_i_glide_gscore>  (1) 
-8.5414458801921

>  <r_i_glide_emodel>  (1) 
-111.904226935975

>  <index_string>  (1) 
8:0:0

$$$$
