15:0:0
     RDKit          3D

 63 66  0  0  1  0  0  0  0  0999 V2000
   41.1964   17.4863   11.6294 O   0  0  0  0  0  0  0  0  0  0  0  0
   40.3029   17.3332   12.4938 C   0  0  0  0  0  0  0  0  0  0  0  0
   39.3837   18.1464   12.7188 O   0  0  0  0  0  0  0  0  0  0  0  0
   40.2526   16.0161   13.2496 C   0  0  0  0  0  0  0  0  0  0  0  0
   41.4141   15.2431   12.9829 O   0  0  0  0  0  0  0  0  0  0  0  0
   42.0085   14.7713   14.0947 C   0  0  0  0  0  0  0  0  0  0  0  0
   41.7519   13.4730   14.6211 C   0  0  0  0  0  0  0  0  0  0  0  0
   40.8041   12.5620   13.9171 C   0  0  0  0  0  0  0  0  0  0  0  0
   42.8808   15.5048   14.8516 C   0  0  0  0  0  0  0  0  0  0  0  0
   43.3832   16.8816   14.7004 C   0  0  0  0  0  0  0  0  0  0  0  0
   43.8285   17.4863   15.6939 O   0  0  0  0  0  0  0  0  0  0  0  0
   43.3837   17.4093   13.5685 O   0  0  0  0  0  0  0  0  0  0  0  0
   43.4535   14.5798   16.2103 S   0  0  0  0  0  0  0  0  0  0  0  0
   42.4490   13.2091   15.7832 C   0  0  0  0  0  0  0  0  0  0  0  0
   42.4325   12.0325   16.6721 C   0  0  0  0  0  0  0  0  0  0  0  0
   42.7962   12.1508   18.0352 C   0  0  0  0  0  0  0  0  0  0  0  0
   42.7111   11.0516   18.9094 C   0  0  0  0  0  0  0  0  0  0  0  0
   42.2221    9.8177   18.4467 C   0  0  0  0  0  0  0  0  0  0  0  0
   41.8390    9.6703   17.1008 C   0  0  0  0  0  0  0  0  0  0  0  0
   42.0011   10.7621   16.2176 C   0  0  0  0  0  0  0  0  0  0  0  0
   41.2863    8.4435   16.7003 N   0  0  0  0  0  0  0  0  0  0  0  0
   40.4332    8.3276   15.5185 C   0  0  0  0  0  0  0  0  0  0  0  0
   40.0679    6.8632   15.2760 C   0  0  0  0  0  0  0  0  0  0  0  0
   39.2275    6.6708   13.9987 C   0  0  0  0  0  0  0  0  0  0  0  0
   38.0615    7.5789   13.9553 N   0  0  0  0  0  0  0  0  0  0  0  0
   38.2692    8.9764   14.3709 C   0  0  0  0  0  0  0  0  0  0  0  0
   39.1095    9.0953   15.6545 C   0  0  0  0  0  0  0  0  0  0  0  0
   36.5121    7.0424   13.3852 S   0  0  0  0  0  0  0  0  0  0  0  0
   35.7837    8.2218   12.8917 O   0  0  0  0  0  0  0  0  0  0  0  0
   36.7291    5.8915   12.4947 O   0  0  0  0  0  0  0  0  0  0  0  0
   35.6797    6.4801   14.9315 C   0  0  0  0  0  0  0  0  0  0  0  0
   36.2397    5.1562   15.4171 C   0  0  0  0  0  0  0  0  0  0  0  0
   35.8975    3.9532   14.7637 C   0  0  0  0  0  0  0  0  0  0  0  0
   36.4284    2.7283   15.2123 C   0  0  0  0  0  0  0  0  0  0  0  0
   37.2983    2.7003   16.3194 C   0  0  0  0  0  0  0  0  0  0  0  0
   37.6329    3.8972   16.9817 C   0  0  0  0  0  0  0  0  0  0  0  0
   37.1001    5.1216   16.5345 C   0  0  0  0  0  0  0  0  0  0  0  0
   40.1017   16.2217   14.3123 H   0  0  0  0  0  0  0  0  0  0  0  0
   39.3838   15.4660   12.8942 H   0  0  0  0  0  0  0  0  0  0  0  0
   40.1840   11.9951   14.6079 H   0  0  0  0  0  0  0  0  0  0  0  0
   40.1218   13.0977   13.2592 H   0  0  0  0  0  0  0  0  0  0  0  0
   41.3808   11.8864   13.2941 H   0  0  0  0  0  0  0  0  0  0  0  0
   43.1313   13.0932   18.4413 H   0  0  0  0  0  0  0  0  0  0  0  0
   42.9927   11.1652   19.9459 H   0  0  0  0  0  0  0  0  0  0  0  0
   42.1255    8.9915   19.1365 H   0  0  0  0  0  0  0  0  0  0  0  0
   41.7681   10.6183   15.1787 H   0  0  0  0  0  0  0  0  0  0  0  0
   41.1962    7.7198   17.4005 H   0  0  0  0  0  0  0  0  0  0  0  0
   40.9830    8.6884   14.6494 H   0  0  0  0  0  0  0  0  0  0  0  0
   40.9830    6.2860   15.2091 H   0  0  0  0  0  0  0  0  0  0  0  0
   39.5285    6.4674   16.1355 H   0  0  0  0  0  0  0  0  0  0  0  0
   39.8426    6.8557   13.1172 H   0  0  0  0  0  0  0  0  0  0  0  0
   38.8938    5.6346   13.9345 H   0  0  0  0  0  0  0  0  0  0  0  0
   38.7670    9.4862   13.5489 H   0  0  0  0  0  0  0  0  0  0  0  0
   37.3094    9.4737   14.5155 H   0  0  0  0  0  0  0  0  0  0  0  0
   38.5405    8.7132   16.5031 H   0  0  0  0  0  0  0  0  0  0  0  0
   39.2927   10.1491   15.8606 H   0  0  0  0  0  0  0  0  0  0  0  0
   35.7856    7.2619   15.6815 H   0  0  0  0  0  0  0  0  0  0  0  0
   34.6184    6.3682   14.7135 H   0  0  0  0  0  0  0  0  0  0  0  0
   35.2370    3.9653   13.9088 H   0  0  0  0  0  0  0  0  0  0  0  0
   36.1711    1.8100   14.7048 H   0  0  0  0  0  0  0  0  0  0  0  0
   37.7075    1.7607   16.6610 H   0  0  0  0  0  0  0  0  0  0  0  0
   38.2993    3.8759   17.8317 H   0  0  0  0  0  0  0  0  0  0  0  0
   37.3639    6.0338   17.0490 H   0  0  0  0  0  0  0  0  0  0  0  0
  1  2  2  0
  2  3  1  0
  2  4  1  0
  4  5  1  0
  4 38  1  0
  4 39  1  0
  5  6  1  0
  6  7  1  0
  6  9  2  0
  7 14  2  0
  7  8  1  0
  8 40  1  0
  8 41  1  0
  8 42  1  0
  9 10  1  0
  9 13  1  0
 10 11  2  0
 10 12  1  0
 13 14  1  0
 14 15  1  0
 15 20  1  0
 15 16  2  0
 16 17  1  0
 16 43  1  0
 17 18  2  0
 17 44  1  0
 18 19  1  0
 18 45  1  0
 19 20  2  0
 19 21  1  0
 20 46  1  0
 21 22  1  0
 21 47  1  0
 22 27  1  0
 22 23  1  0
 22 48  1  0
 23 24  1  0
 23 49  1  0
 23 50  1  0
 24 25  1  0
 24 51  1  0
 24 52  1  0
 25 26  1  0
 25 28  1  0
 26 27  1  0
 26 53  1  0
 26 54  1  0
 27 55  1  0
 27 56  1  0
 28 29  2  0
 28 30  2  0
 28 31  1  0
 31 32  1  0
 31 57  1  0
 31 58  1  0
 32 37  1  0
 32 33  2  0
 33 34  1  0
 33 59  1  0
 34 35  2  0
 34 60  1  0
 35 36  1  0
 35 61  1  0
 36 37  2  0
 36 62  1  0
 37 63  1  0
M  CHG  2   3  -1  12  -1
M  END
>  <s_m_entry_id>  (1) 
468

>  <i_f3d_flags>  (1) 
0

>  <r_epik_Ionization_Penalty>  (1) 
  0.0005

>  <r_epik_State_Penalty>  (1) 
  0.0002

>  <i_epik_Tot_Q>  (1) 
-2

>  <s_m_job_name>  (1) 
glide-dock_SP_ptp1b_no_cons

>  <r_i_docking_score>  (1) 
-8.56925559358909

>  <r_i_glide_gscore>  (1) 
-8.56945559358909

>  <r_i_glide_emodel>  (1) 
-130.110051732685

>  <index_string>  (1) 
15:0:0

$$$$
