16:0:0
     RDKit          3D

 51 54  0  0  1  0  0  0  0  0999 V2000
    5.6970   -0.5560   16.4760 C   0  0  0  0  0  0  0  0  0  0  0  0
    4.4120   -0.9620   16.3130 N   0  0  0  0  0  0  0  0  0  0  0  0
    3.9910   -0.2590   15.2490 C   0  0  0  0  0  0  0  0  0  0  0  0
    2.7270   -0.3060   14.6650 C   0  0  0  0  0  0  0  0  0  0  0  0
    1.7130   -1.1710   15.1930 N   0  0  0  0  0  0  0  0  0  0  0  0
    2.5010    0.4950   13.5820 N   0  0  0  0  0  0  0  0  0  0  0  0
    3.4650    1.3240   13.0700 C   0  0  0  0  0  0  0  0  0  0  0  0
    4.7340    1.3520   13.6810 C   0  0  0  0  0  0  0  0  0  0  0  0
    4.9320    0.5480   14.7520 N   0  0  0  0  0  0  0  0  0  0  0  0
    6.0270    0.3870   15.5050 C   0  0  0  0  0  0  0  0  0  0  0  0
    0.3730   -1.3320   14.7070 C   0  0  0  0  0  0  0  0  0  0  0  0
   -0.3500   -2.5170   14.8970 C   0  0  0  0  0  0  0  0  0  0  0  0
   -1.6540   -2.6340   14.4100 C   0  0  0  0  0  0  0  0  0  0  0  0
   -2.2550   -1.5670   13.7230 C   0  0  0  0  0  0  0  0  0  0  0  0
   -1.5360   -0.3780   13.5300 C   0  0  0  0  0  0  0  0  0  0  0  0
   -0.2260   -0.2700   14.0240 C   0  0  0  0  0  0  0  0  0  0  0  0
   -3.5600   -1.6670   13.2280 O   0  0  0  0  0  0  0  0  0  0  0  0
   -4.1760   -2.9120   12.9280 C   0  0  0  0  0  0  0  0  0  0  0  0
   -2.1420    0.6820   12.8450 O   0  0  0  0  0  0  0  0  0  0  0  0
   -1.6090    1.2270   11.6460 C   0  0  0  0  0  0  0  0  0  0  0  0
    3.1650    2.1700   11.8960 C   0  0  0  0  0  0  0  0  0  0  0  0
    4.1610    2.4330   10.9450 C   0  0  0  0  0  0  0  0  0  0  0  0
    3.8860    3.2300    9.8320 C   0  0  0  0  0  0  0  0  0  0  0  0
    2.6120    3.7740    9.6600 C   0  0  0  0  0  0  0  0  0  0  0  0
    1.6020    3.5230   10.5980 C   0  0  0  0  0  0  0  0  0  0  0  0
    1.8860    2.7220   11.7130 C   0  0  0  0  0  0  0  0  0  0  0  0
    0.2570    4.0960   10.4160 C   0  0  0  0  0  0  0  0  0  0  0  0
   -0.4310    3.7840    9.4050 O   0  0  0  0  0  0  0  0  0  0  0  0
   -0.2730    5.0050   11.3860 N   0  0  0  0  0  0  0  0  0  0  0  0
   -1.5930    5.5950   11.2490 C   0  0  0  0  0  0  0  0  0  0  0  0
    6.3781   -0.9185   17.2600 H   0  0  0  0  0  0  0  0  0  0  0  0
    1.9754   -1.7392   16.0110 H   0  0  0  0  0  0  0  0  0  0  0  0
    5.5350    2.0035   13.3016 H   0  0  0  0  0  0  0  0  0  0  0  0
    6.9938    0.8971   15.3818 H   0  0  0  0  0  0  0  0  0  0  0  0
    0.1117   -3.3597   15.4325 H   0  0  0  0  0  0  0  0  0  0  0  0
   -2.2137   -3.5681   14.5657 H   0  0  0  0  0  0  0  0  0  0  0  0
    0.3363    0.6630   13.8713 H   0  0  0  0  0  0  0  0  0  0  0  0
   -4.4320   -3.4295   13.8643 H   0  0  0  0  0  0  0  0  0  0  0  0
   -5.0914   -2.7368   12.3437 H   0  0  0  0  0  0  0  0  0  0  0  0
   -3.4814   -3.5334   12.3437 H   0  0  0  0  0  0  0  0  0  0  0  0
   -0.8595    1.9933   11.8930 H   0  0  0  0  0  0  0  0  0  0  0  0
   -1.1353    0.4268   11.0584 H   0  0  0  0  0  0  0  0  0  0  0  0
   -2.4195    1.6828   11.0584 H   0  0  0  0  0  0  0  0  0  0  0  0
    5.1670    2.0081   11.0767 H   0  0  0  0  0  0  0  0  0  0  0  0
    4.6736    3.4293    9.0904 H   0  0  0  0  0  0  0  0  0  0  0  0
    2.3999    4.4033    8.7831 H   0  0  0  0  0  0  0  0  0  0  0  0
    1.0976    2.5232   12.4539 H   0  0  0  0  0  0  0  0  0  0  0  0
    0.2995    5.2484   12.2069 H   0  0  0  0  0  0  0  0  0  0  0  0
   -2.0156    5.7839   12.2469 H   0  0  0  0  0  0  0  0  0  0  0  0
   -1.5151    6.5440   10.6982 H   0  0  0  0  0  0  0  0  0  0  0  0
   -2.2481    4.9040   10.6982 H   0  0  0  0  0  0  0  0  0  0  0  0
  1  2  1  0
  1 10  2  0
  2  3  2  0
  3  4  1  0
  3  9  1  0
  4  5  1  0
  4  6  2  0
  5 11  1  0
  6  7  1  0
  7  8  2  0
  7 21  1  0
  8  9  1  0
  9 10  1  0
 11 12  2  0
 11 16  1  0
 12 13  1  0
 13 14  2  0
 14 15  1  0
 14 17  1  0
 15 16  2  0
 15 19  1  0
 17 18  1  0
 19 20  1  0
 21 22  2  0
 21 26  1  0
 22 23  1  0
 23 24  2  0
 24 25  1  0
 25 26  2  0
 25 27  1  0
 27 29  1  0
 27 28  2  0
 29 30  1  0
  1 31  1  0
  5 32  1  0
  8 33  1  0
 10 34  1  0
 12 35  1  0
 13 36  1  0
 16 37  1  0
 18 38  1  0
 18 39  1  0
 18 40  1  0
 20 41  1  0
 20 42  1  0
 20 43  1  0
 22 44  1  0
 23 45  1  0
 24 46  1  0
 26 47  1  0
 29 48  1  0
 30 49  1  0
 30 50  1  0
 30 51  1  0
M  END
>  <s_m_entry_id>  (1) 
612

>  <MODEL>  (1) 
1

>  <REMARK>  (1) 
 VINA RESULT:    -9.846      0.000      0.000
 INTER + INTRA:         -13.280
 INTER:                 -12.696
 INTRA:                  -0.584
 UNBOUND:                -0.557
  Name = /scratch/kmzp800/tmpe5wzmsje/tmpnys91t1h.pdb
  8 active torsions:
  status: ('A' for Active; 'I' for Inactive)
    1  A    between atoms: N2_5  and  C4_6
    2  A    between atoms: C7_9  and  O1_10
    3  A    between atoms: O1_10  and  C8_11
    4  A    between atoms: C9_12  and  O2_13
    5  A    between atoms: O2_13  and  C10_14
    6  A    between atoms: C12_17  and  C13_18
    7  A    between atoms: C17_22  and  C18_23
    8  A    between atoms: N4_25  and  C19_26
                            x       y       z     vdW  Elec       q    Type
                         _______ _______ _______ _____ _____    ______ ____

>  <TORSDO>  (1) 
F 5

>  <grid_id>  (1) 
syk-prepared

>  <grid_path>  (1) 
syk_vina.pdbqt

>  <grid_filename>  (1) 
syk_vina.pdbqt

>  <docking_score>  (1) 
-9.846

>  <compound_name>  (1) 
CHEMBL3265006

>  <index_string>  (1) 
16:0:0

>  <s_m_Source_Path>  (1) 
/projects/mai/users/kmzp800_harry/pmx_colab/docking_jobs/syk/vina_prep/output

>  <s_m_Source_File>  (1) 
ptp1b_docked_conformers.sdf

>  <i_m_Source_File_Index>  (1) 
436

$$$$
