4:0:0
     RDKit          3D

 45 47  0  0  1  0  0  0  0  0999 V2000
   33.9550   39.3120   26.7030 N   0  0  0  0  0  0  0  0  0  0  0  0
   34.2810   38.4220   25.6290 C   0  0  0  0  0  0  0  0  0  0  0  0
   35.1230   37.3700   25.8250 N   0  0  0  0  0  0  0  0  0  0  0  0
   35.4370   36.5230   24.8110 C   0  0  0  0  0  0  0  0  0  0  0  0
   34.8930   36.7280   23.5480 C   0  0  0  0  0  0  0  0  0  0  0  0
   35.1930   35.8810   22.4890 C   0  0  0  0  0  0  0  0  0  0  0  0
   34.6360   36.1180   21.2270 C   0  0  0  0  0  0  0  0  0  0  0  0
   33.7620   37.2040   21.0610 C   0  0  0  0  0  0  0  0  0  0  0  0
   33.2450   37.4120   19.9290 O   0  0  0  0  0  0  0  0  0  0  0  0
   33.4740   38.0330   22.1140 N   0  0  0  0  0  0  0  0  0  0  0  0
   32.5670   39.1600   21.9160 C   0  0  0  0  0  0  0  0  0  0  0  0
   34.0240   37.8140   23.3500 C   0  0  0  0  0  0  0  0  0  0  0  0
   33.7410   38.6350   24.3990 N   0  0  0  0  0  0  0  0  0  0  0  0
   34.4580   39.2050   28.0710 C   0  0  0  0  0  0  0  0  0  0  0  0
   33.8150   40.2990   28.9020 C   0  0  0  0  0  0  0  0  0  0  0  0
   35.9650   39.4100   28.0850 C   0  0  0  0  0  0  0  0  0  0  0  0
   34.0930   37.8400   28.6540 C   0  0  0  0  0  0  0  0  0  0  0  0
   35.2070   36.9970   28.7060 O   0  0  0  0  0  0  0  0  0  0  0  0
   34.8990   35.2700   20.1400 O   0  0  0  0  0  0  0  0  0  0  0  0
   35.7870   35.5540   19.0950 C   0  0  0  0  0  0  0  0  0  0  0  0
   37.1230   35.8260   19.4100 C   0  0  0  0  0  0  0  0  0  0  0  0
   38.0470   36.1070   18.3990 C   0  0  0  0  0  0  0  0  0  0  0  0
   37.6410   36.1050   17.0630 C   0  0  0  0  0  0  0  0  0  0  0  0
   38.5360   36.3780   16.0830 F   0  0  0  0  0  0  0  0  0  0  0  0
   36.3160   35.8090   16.7350 C   0  0  0  0  0  0  0  0  0  0  0  0
   35.3890   35.5300   17.7430 C   0  0  0  0  0  0  0  0  0  0  0  0
   34.1240   35.1850   17.3940 F   0  0  0  0  0  0  0  0  0  0  0  0
   33.3140   40.0907   26.4942 H   0  0  0  0  0  0  0  0  0  0  0  0
   36.1189   35.6782   24.9881 H   0  0  0  0  0  0  0  0  0  0  0  0
   35.8672   35.0254   22.6418 H   0  0  0  0  0  0  0  0  0  0  0  0
   32.2511   39.5526   22.8938 H   0  0  0  0  0  0  0  0  0  0  0  0
   33.0830   39.9513   21.3525 H   0  0  0  0  0  0  0  0  0  0  0  0
   31.6836   38.8251   21.3525 H   0  0  0  0  0  0  0  0  0  0  0  0
   33.9475   40.0736   29.9705 H   0  0  0  0  0  0  0  0  0  0  0  0
   34.2899   41.2635   28.6691 H   0  0  0  0  0  0  0  0  0  0  0  0
   32.7413   40.3533   28.6691 H   0  0  0  0  0  0  0  0  0  0  0  0
   36.3188   39.4581   29.1254 H   0  0  0  0  0  0  0  0  0  0  0  0
   36.4541   38.5701   27.5699 H   0  0  0  0  0  0  0  0  0  0  0  0
   36.2120   40.3500   27.5699 H   0  0  0  0  0  0  0  0  0  0  0  0
   33.7002   37.9783   29.6721 H   0  0  0  0  0  0  0  0  0  0  0  0
   33.3356   37.3759   28.0051 H   0  0  0  0  0  0  0  0  0  0  0  0
   35.4423   36.8190   29.6510 H   0  0  0  0  0  0  0  0  0  0  0  0
   37.4486   35.8187   20.4607 H   0  0  0  0  0  0  0  0  0  0  0  0
   39.0932   36.3295   18.6559 H   0  0  0  0  0  0  0  0  0  0  0  0
   36.0014   35.7954   15.6810 H   0  0  0  0  0  0  0  0  0  0  0  0
  1 14  1  0
  1  2  1  0
  1 28  1  0
  2  3  2  0
  2 13  1  0
  3  4  1  0
  4  5  2  0
  4 29  1  0
  5  6  1  0
  5 12  1  0
  6  7  2  0
  6 30  1  0
  7  8  1  0
  7 19  1  0
  8 10  1  0
  8  9  2  0
 10 12  1  0
 10 11  1  0
 11 31  1  0
 11 32  1  0
 11 33  1  0
 12 13  2  0
 14 16  1  0
 14 17  1  0
 14 15  1  0
 15 34  1  0
 15 35  1  0
 15 36  1  0
 16 37  1  0
 16 38  1  0
 16 39  1  0
 17 18  1  0
 17 40  1  0
 17 41  1  0
 18 42  1  0
 19 20  1  0
 20 21  2  0
 20 26  1  0
 21 22  1  0
 21 43  1  0
 22 23  2  0
 22 44  1  0
 23 24  1  0
 23 25  1  0
 25 26  2  0
 25 45  1  0
 26 27  1  0
M  END
>  <s_m_entry_id>  (1) 
1358

>  <MODEL>  (1) 
1

>  <REMARK>  (1) 
 VINA RESULT:    -7.806      0.000      0.000
 INTER + INTRA:         -10.102
 INTER:                  -9.859
 INTRA:                  -0.242
 UNBOUND:                -0.242
  Name = /scratch/kmzp800/tmprwox22z3/tmp3haty_uk.pdb
  8 active torsions:
  status: ('A' for Active; 'I' for Inactive)
    1  A    between atoms: O1_1  and  C1_2
    2  A    between atoms: C1_2  and  C2_3
    3  A    between atoms: C2_3  and  N1_4
    4  A    between atoms: C2_3  and  C17_26
    5  A    between atoms: C2_3  and  C18_27
    6  A    between atoms: C7_10  and  O2_11
    7  A    between atoms: O2_11  and  C8_12
    8  A    between atoms: N3_22  and  C15_23
                            x       y       z     vdW  Elec       q    Type
                         _______ _______ _______ _____ _____    ______ ____

>  <TORSDO>  (1) 
F 5

>  <grid_id>  (1) 
p38-prepared

>  <grid_path>  (1) 
/projects/mai/users/kmzp800_harry/pmx_colab/docking_jobs/p38/vina_docking/input_files/p38_vina.pdbqt

>  <grid_filename>  (1) 
p38_vina.pdbqt

>  <docking_score>  (1) 
-7.806

>  <compound_name>  (1) 
lig_p38a_2z

>  <index_string>  (1) 
4:0:0

>  <s_m_Source_Path>  (1) 
/projects/mai/users/kmzp800_harry/pmx_colab/docking_jobs/p38

>  <s_m_Source_File>  (1) 
p38_confs_vina_naive.sdf

>  <i_m_Source_File_Index>  (1) 
5

$$$$
