1:0:0
     RDKit          3D

 46 49  0  0  1  0  0  0  0  0999 V2000
   32.9461   34.3488   14.4710 F   0  0  0  0  0  0  0  0  0  0  0  0
   33.6355   34.7405   15.5683 C   0  0  0  0  0  0  0  0  0  0  0  0
   32.9523   35.1493   16.7224 C   0  0  0  0  0  0  0  0  0  0  0  0
   33.6465   35.5235   17.8894 C   0  0  0  0  0  0  0  0  0  0  0  0
   32.9178   35.9085   18.9645 F   0  0  0  0  0  0  0  0  0  0  0  0
   35.0703   35.5376   17.8872 C   0  0  0  0  0  0  0  0  0  0  0  0
   35.7455   35.1679   16.7030 C   0  0  0  0  0  0  0  0  0  0  0  0
   35.0385   34.7492   15.5623 C   0  0  0  0  0  0  0  0  0  0  0  0
   35.8739   35.8782   18.9546 O   0  0  0  0  0  0  0  0  0  0  0  0
   35.3261   36.3108   20.1290 C   0  0  0  0  0  0  0  0  0  0  0  0
   34.7972   35.3318   21.0887 C   0  0  0  0  0  0  0  0  0  0  0  0
   34.7494   34.1306   20.8092 O   0  0  0  0  0  0  0  0  0  0  0  0
   34.3504   35.8260   22.2847 N   0  0  0  0  0  0  0  0  0  0  0  0
   33.8588   34.8804   23.2994 C   0  0  0  0  0  0  0  0  0  0  0  0
   35.3188   37.6277   20.3832 C   0  0  0  0  0  0  0  0  0  0  0  0
   34.7756   38.1387   21.6260 C   0  0  0  0  0  0  0  0  0  0  0  0
   34.2849   37.2317   22.5879 C   0  0  0  0  0  0  0  0  0  0  0  0
   34.7050   39.5081   21.9198 C   0  0  0  0  0  0  0  0  0  0  0  0
   34.2197   39.9495   23.0912 N   0  0  0  0  0  0  0  0  0  0  0  0
   33.7771   39.0365   23.9435 C   0  0  0  0  0  0  0  0  0  0  0  0
   33.7775   37.7140   23.7500 N   0  0  0  0  0  0  0  0  0  0  0  0
   33.2882   39.5484   25.1294 N   0  0  0  0  0  0  0  0  0  0  0  0
   32.5851   38.7606   26.1353 C   0  0  0  0  0  0  0  0  0  0  0  0
   31.1030   38.5914   25.7468 C   0  0  0  0  0  0  0  0  0  0  0  0
   32.7871   39.3790   27.5352 C   0  0  0  0  0  0  0  0  0  0  0  0
   32.2195   38.5874   28.6166 N   0  0  0  0  0  0  0  0  0  0  0  0
   31.7445   39.1493   29.7421 N   0  0  0  0  0  0  0  0  0  0  0  0
   31.3625   38.0643   30.3948 C   0  0  0  0  0  0  0  0  0  0  0  0
   31.6571   36.8986   29.7512 N   0  0  0  0  0  0  0  0  0  0  0  0
   32.2192   37.2367   28.6361 N   0  0  0  0  0  0  0  0  0  0  0  0
   33.0399   37.7689   26.1571 H   0  0  0  0  0  0  0  0  0  0  0  0
   31.8732   35.1500   16.7302 H   0  0  0  0  0  0  0  0  0  0  0  0
   36.8255   35.1830   16.6812 H   0  0  0  0  0  0  0  0  0  0  0  0
   35.5758   34.4237   14.6889 H   0  0  0  0  0  0  0  0  0  0  0  0
   34.3221   33.8941   23.2307 H   0  0  0  0  0  0  0  0  0  0  0  0
   34.0625   35.2318   24.3111 H   0  0  0  0  0  0  0  0  0  0  0  0
   32.7803   34.7534   23.1978 H   0  0  0  0  0  0  0  0  0  0  0  0
   35.7240   38.3327   19.6718 H   0  0  0  0  0  0  0  0  0  0  0  0
   35.0428   40.2537   21.2212 H   0  0  0  0  0  0  0  0  0  0  0  0
   33.3683   40.5500   25.2676 H   0  0  0  0  0  0  0  0  0  0  0  0
   30.5548   37.9995   26.4806 H   0  0  0  0  0  0  0  0  0  0  0  0
   30.5996   39.5539   25.6527 H   0  0  0  0  0  0  0  0  0  0  0  0
   31.0072   38.0791   24.7894 H   0  0  0  0  0  0  0  0  0  0  0  0
   32.3454   40.3764   27.5691 H   0  0  0  0  0  0  0  0  0  0  0  0
   33.8512   39.4996   27.7415 H   0  0  0  0  0  0  0  0  0  0  0  0
   30.8874   38.1097   31.3638 H   0  0  0  0  0  0  0  0  0  0  0  0
  1  2  1  0
  2  8  2  0
  2  3  1  0
  3  4  2  0
  3 32  1  0
  4  5  1  0
  4  6  1  0
  6  7  2  0
  6  9  1  0
  7  8  1  0
  7 33  1  0
  8 34  1  0
  9 10  1  0
 10 11  1  0
 10 15  2  0
 11 12  2  0
 11 13  1  0
 13 17  1  0
 13 14  1  0
 14 35  1  0
 14 36  1  0
 14 37  1  0
 15 16  1  0
 15 38  1  0
 16 17  2  0
 16 18  1  0
 17 21  1  0
 18 19  2  0
 18 39  1  0
 19 20  1  0
 20 21  2  0
 20 22  1  0
 22 23  1  0
 22 40  1  0
 23 31  1  0
 23 24  1  0
 23 25  1  0
 24 41  1  0
 24 42  1  0
 24 43  1  0
 25 26  1  0
 25 44  1  0
 25 45  1  0
 26 30  1  0
 26 27  1  0
 27 28  2  0
 28 29  1  0
 28 46  1  0
 29 30  2  0
M  END
>  <s_m_entry_id>  (1) 
718

>  <i_f3d_flags>  (1) 
0

>  <r_lp_tautomer_probability>  (1) 
1

>  <r_epik_Ionization_Penalty>  (1) 
  0.0000

>  <r_epik_State_Penalty>  (1) 
  0.0000

>  <i_epik_Tot_Q>  (1) 
0

>  <s_m_job_name>  (1) 
glide-dock_SP_p38_all_ligs_no_cons_10_poses

>  <r_i_docking_score>  (1) 
-6.90016169096923

>  <r_i_glide_gscore>  (1) 
-6.90016169096923

>  <r_i_glide_emodel>  (1) 
-57.9375962266269

>  <index_string>  (1) 
1:0:0

$$$$
