12:0:0
     RDKit          3D

 46 49  0  0  1  0  0  0  0  0999 V2000
   34.4906   35.0843   21.2501 C   0  0  0  0  0  0  0  0  0  0  0  0
   34.1220   38.9874   23.9565 C   0  0  0  0  0  0  0  0  0  0  0  0
   34.8294   37.8973   21.6073 C   0  0  0  0  0  0  0  0  0  0  0  0
   35.1698   37.2616   20.3393 C   0  0  0  0  0  0  0  0  0  0  0  0
   34.3625   37.0913   22.6641 C   0  0  0  0  0  0  0  0  0  0  0  0
   34.9078   39.2837   21.8393 C   0  0  0  0  0  0  0  0  0  0  0  0
   35.0159   35.9293   20.1763 C   0  0  0  0  0  0  0  0  0  0  0  0
   33.8207   34.8488   23.5896 C   0  0  0  0  0  0  0  0  0  0  0  0
   34.5521   39.8325   23.0214 N   0  0  0  0  0  0  0  0  0  0  0  0
   34.2655   33.8903   21.0580 O   0  0  0  0  0  0  0  0  0  0  0  0
   34.2606   35.6785   22.4555 N   0  0  0  0  0  0  0  0  0  0  0  0
   34.0141   37.6665   23.8335 N   0  0  0  0  0  0  0  0  0  0  0  0
   33.7687   39.5493   25.1656 N   0  0  0  0  0  0  0  0  0  0  0  0
   35.5189   37.8958   19.5368 H   0  0  0  0  0  0  0  0  0  0  0  0
   35.2580   39.9493   21.0681 H   0  0  0  0  0  0  0  0  0  0  0  0
   34.2700   35.1870   24.5240 H   0  0  0  0  0  0  0  0  0  0  0  0
   32.7374   34.9098   23.6966 H   0  0  0  0  0  0  0  0  0  0  0  0
   34.0904   33.7953   23.4961 H   0  0  0  0  0  0  0  0  0  0  0  0
   33.8491   40.5572   25.2521 H   0  0  0  0  0  0  0  0  0  0  0  0
   33.3326   38.4314   28.7782 C   0  0  0  0  0  0  0  0  0  0  0  0
   33.9564   39.1918   27.5990 C   0  0  0  0  0  0  0  0  0  0  0  0
   33.2245   38.8209   26.3055 C   0  0  0  0  0  0  0  0  0  0  0  0
   31.7230   39.0864   26.4799 C   0  0  0  0  0  0  0  0  0  0  0  0
   31.2017   38.3494   27.7250 C   0  0  0  0  0  0  0  0  0  0  0  0
   31.9465   38.7465   28.8723 O   0  0  0  0  0  0  0  0  0  0  0  0
   33.4677   37.3545   28.6662 H   0  0  0  0  0  0  0  0  0  0  0  0
   33.8217   38.7187   29.7091 H   0  0  0  0  0  0  0  0  0  0  0  0
   35.0167   38.9495   27.5184 H   0  0  0  0  0  0  0  0  0  0  0  0
   33.8885   40.2663   27.7780 H   0  0  0  0  0  0  0  0  0  0  0  0
   33.3583   37.7485   26.1630 H   0  0  0  0  0  0  0  0  0  0  0  0
   31.5420   40.1569   26.5874 H   0  0  0  0  0  0  0  0  0  0  0  0
   31.1721   38.7608   25.5968 H   0  0  0  0  0  0  0  0  0  0  0  0
   31.2653   37.2683   27.5927 H   0  0  0  0  0  0  0  0  0  0  0  0
   30.1520   38.5855   27.8909 H   0  0  0  0  0  0  0  0  0  0  0  0
   35.2467   35.2868   18.9865 O   0  0  0  0  0  0  0  0  0  0  0  0
   37.9427   36.6052   16.0713 C   0  0  0  0  0  0  0  0  0  0  0  0
   38.4208   36.3493   17.3753 C   0  0  0  0  0  0  0  0  0  0  0  0
   37.5143   36.0028   18.4015 C   0  0  0  0  0  0  0  0  0  0  0  0
   36.1593   35.7559   18.0803 C   0  0  0  0  0  0  0  0  0  0  0  0
   35.7521   35.8488   16.7439 C   0  0  0  0  0  0  0  0  0  0  0  0
   36.6047   36.3494   15.7546 C   0  0  0  0  0  0  0  0  0  0  0  0
   38.7359   37.1494   15.1292 F   0  0  0  0  0  0  0  0  0  0  0  0
   39.4579   36.5378   17.6112 H   0  0  0  0  0  0  0  0  0  0  0  0
   37.8673   35.8834   19.4156 H   0  0  0  0  0  0  0  0  0  0  0  0
   34.7374   35.5786   16.4857 H   0  0  0  0  0  0  0  0  0  0  0  0
   36.2362   36.5351   14.7577 H   0  0  0  0  0  0  0  0  0  0  0  0
  1  7  1  0
  1 10  2  0
  1 11  1  0
  2  9  1  0
  2 12  2  0
  2 13  1  0
  3  4  1  0
  3  5  2  0
  3  6  1  0
  4  7  2  0
  4 14  1  0
  5 11  1  0
  5 12  1  0
  6  9  2  0
  6 15  1  0
  7 35  1  0
  8 11  1  0
  8 16  1  0
  8 17  1  0
  8 18  1  0
 13 19  1  0
 13 22  1  0
 20 21  1  0
 20 25  1  0
 20 26  1  0
 20 27  1  0
 21 22  1  0
 21 28  1  0
 21 29  1  0
 22 23  1  0
 22 30  1  0
 23 24  1  0
 23 31  1  0
 23 32  1  0
 24 25  1  0
 24 33  1  0
 24 34  1  0
 35 39  1  0
 36 37  2  0
 36 41  1  0
 36 42  1  0
 37 38  1  0
 37 43  1  0
 38 39  2  0
 38 44  1  0
 39 40  1  0
 40 41  2  0
 40 45  1  0
 41 46  1  0
M  END
>  <s_m_entry_id>  (1) 
830

>  <s_m_Source_Path>  (1) 
/projects/mai/users/kmzp800_harry/pmx_colab/docking_jobs/p38/glide-dock_SP_p38_mcs_docking_2

>  <s_m_Source_File>  (1) 
glide-dock_SP_p38_mcs_docking_2_pv.maegz

>  <i_m_Source_File_Index>  (1) 
14

>  <s_pdb_PDB_TITLE>  (1) 
MX MODEL

>  <r_i_docking_score>  (1) 
-7.26839178758188

>  <r_i_glide_gscore>  (1) 
-7.26839178758188

>  <r_i_glide_emodel>  (1) 
-49.4385413402667

>  <index_string>  (1) 
12:0:0

$$$$
