11:0:0
     RDKit          3D

 48 51  0  0  1  0  0  0  0  0999 V2000
   33.5860   35.7500   19.8200 C   0  0  0  0  0  0  0  0  0  0  0  0
   33.5410   37.0190   20.3980 C   0  0  0  0  0  0  0  0  0  0  0  0
   33.2680   37.1480   21.7540 C   0  0  0  0  0  0  0  0  0  0  0  0
   33.2140   38.3990   22.3630 C   0  0  0  0  0  0  0  0  0  0  0  0
   32.9460   38.4900   23.6910 N   0  0  0  0  0  0  0  0  0  0  0  0
   32.7310   37.3760   24.4430 C   0  0  0  0  0  0  0  0  0  0  0  0
   32.4490   37.4840   25.8390 N   0  0  0  0  0  0  0  0  0  0  0  0
   32.7790   36.1470   23.8640 N   0  0  0  0  0  0  0  0  0  0  0  0
   33.0440   36.0010   22.5360 C   0  0  0  0  0  0  0  0  0  0  0  0
   33.0930   34.7600   21.9600 N   0  0  0  0  0  0  0  0  0  0  0  0
   32.8600   33.5730   22.7770 C   0  0  0  0  0  0  0  0  0  0  0  0
   33.3600   34.6170   20.6220 C   0  0  0  0  0  0  0  0  0  0  0  0
   33.4040   33.4670   20.1030 O   0  0  0  0  0  0  0  0  0  0  0  0
   32.4140   38.7600   26.5450 C   0  0  0  0  0  0  0  0  0  0  0  0
   31.3920   38.6850   27.6860 C   0  0  0  0  0  0  0  0  0  0  0  0
   31.9970   38.1200   28.9820 C   0  0  0  0  0  0  0  0  0  0  0  0
   33.2200   37.4760   28.7360 O   0  0  0  0  0  0  0  0  0  0  0  0
   34.1330   38.4970   28.4190 C   0  0  0  0  0  0  0  0  0  0  0  0
   33.8200   39.1210   27.0500 C   0  0  0  0  0  0  0  0  0  0  0  0
   33.9030   35.6250   18.3620 C   0  0  0  0  0  0  0  0  0  0  0  0
   38.1370   35.9600   17.7210 C   0  0  0  0  0  0  0  0  0  0  0  0
   37.6170   35.9970   19.0170 C   0  0  0  0  0  0  0  0  0  0  0  0
   36.2390   35.8810   19.2210 C   0  0  0  0  0  0  0  0  0  0  0  0
   35.3760   35.7250   18.1290 C   0  0  0  0  0  0  0  0  0  0  0  0
   35.9010   35.6920   16.8260 C   0  0  0  0  0  0  0  0  0  0  0  0
   35.0830   35.5470   15.7550 F   0  0  0  0  0  0  0  0  0  0  0  0
   37.2800   35.8080   16.6280 C   0  0  0  0  0  0  0  0  0  0  0  0
   33.7208   37.9131   19.7830 H   0  0  0  0  0  0  0  0  0  0  0  0
   33.3877   39.3096   21.7709 H   0  0  0  0  0  0  0  0  0  0  0  0
   32.2619   36.6222   26.3711 H   0  0  0  0  0  0  0  0  0  0  0  0
   32.9133   33.8444   23.8417 H   0  0  0  0  0  0  0  0  0  0  0  0
   31.8642   33.1630   22.5525 H   0  0  0  0  0  0  0  0  0  0  0  0
   33.6269   32.8170   22.5525 H   0  0  0  0  0  0  0  0  0  0  0  0
   32.0973   39.5608   25.8606 H   0  0  0  0  0  0  0  0  0  0  0  0
   31.0119   39.6976   27.8863 H   0  0  0  0  0  0  0  0  0  0  0  0
   30.5866   38.0061   27.3693 H   0  0  0  0  0  0  0  0  0  0  0  0
   32.1629   38.9457   29.6896 H   0  0  0  0  0  0  0  0  0  0  0  0
   31.2951   37.3837   29.4005 H   0  0  0  0  0  0  0  0  0  0  0  0
   34.0777   39.2793   29.1904 H   0  0  0  0  0  0  0  0  0  0  0  0
   35.1418   38.0604   28.3789 H   0  0  0  0  0  0  0  0  0  0  0  0
   34.5600   38.7601   26.3206 H   0  0  0  0  0  0  0  0  0  0  0  0
   33.8633   40.2142   27.1638 H   0  0  0  0  0  0  0  0  0  0  0  0
   33.5455   34.6507   17.9974 H   0  0  0  0  0  0  0  0  0  0  0  0
   33.4040   36.4426   17.8212 H   0  0  0  0  0  0  0  0  0  0  0  0
   39.2215   36.0506   17.5609 H   0  0  0  0  0  0  0  0  0  0  0  0
   38.2920   36.1174   19.8771 H   0  0  0  0  0  0  0  0  0  0  0  0
   35.8312   35.9123   20.2421 H   0  0  0  0  0  0  0  0  0  0  0  0
   37.6917   35.7795   15.6084 H   0  0  0  0  0  0  0  0  0  0  0  0
  1  2  2  0
  1 12  1  0
  1 20  1  0
  2  3  1  0
  3  4  2  0
  3  9  1  0
  4  5  1  0
  5  6  2  0
  6  7  1  0
  6  8  1  0
  7 14  1  0
  8  9  2  0
  9 10  1  0
 10 11  1  0
 10 12  1  0
 12 13  2  0
 14 19  1  0
 14 15  1  0
 15 16  1  0
 16 17  1  0
 17 18  1  0
 18 19  1  0
 20 24  1  0
 21 22  2  0
 21 27  1  0
 22 23  1  0
 23 24  2  0
 24 25  1  0
 25 26  1  0
 25 27  2  0
  2 28  1  0
  4 29  1  0
  7 30  1  0
 11 31  1  0
 11 32  1  0
 11 33  1  0
 14 34  1  0
 15 35  1  0
 15 36  1  0
 16 37  1  0
 16 38  1  0
 18 39  1  0
 18 40  1  0
 19 41  1  0
 19 42  1  0
 20 43  1  0
 20 44  1  0
 21 45  1  0
 22 46  1  0
 23 47  1  0
 27 48  1  0
M  END
>  <s_m_entry_id>  (1) 
61

>  <MODEL>  (1) 
1

>  <REMARK>  (1) 
 VINA RESULT:   -18.922      0.000      0.000
 INTER + INTRA:         -10.255
 INTER:                  -9.883
 INTRA:                  -0.372
 UNBOUND:                11.986
  Name = /scratch/kmzp800/tmp5e_vslb5/tmpk2eri_dr.pdb
  4 active torsions:
  status: ('A' for Active; 'I' for Inactive)
    1  A    between atoms: C4_4  and  C5_5
    2  A    between atoms: C5_5  and  C6_6
    3  A    between atoms: N2_12  and  C11_13
    4  A    between atoms: N4_21  and  C17_22
                            x       y       z     vdW  Elec       q    Type
                         _______ _______ _______ _____ _____    ______ ____

>  <TORSDO>  (1) 
F 3

>  <grid_id>  (1) 
p38-prepared

>  <grid_path>  (1) 
/projects/mai/users/kmzp800_harry/pmx_colab/docking_jobs/p38/vina_docking/input_files/p38_vina.pdbqt

>  <grid_filename>  (1) 
p38_vina.pdbqt

>  <docking_score>  (1) 
-18.922

>  <compound_name>  (1) 
lig_p38a_2i

>  <index_string>  (1) 
11:0:0

$$$$
