5n
                    3D
 Schrodinger Suite 2021-4.
 44 46  0  0  1  0            999 V2000
  -15.2243  -19.2599  -25.9328 C   0  0  0  0  0  0
  -15.4799  -20.0890  -24.8197 C   0  0  0  0  0  0
  -14.7809  -19.8377  -27.1399 C   0  0  0  0  0  0
  -15.3851  -17.7850  -25.8417 C   0  0  0  0  0  0
  -15.2716  -21.4760  -24.9166 C   0  0  0  0  0  0
  -14.5669  -21.2153  -27.2195 C   0  0  0  0  0  0
  -14.8098  -22.0572  -26.1155 C   0  0  0  0  0  0
  -16.1425  -17.2239  -24.8145 N   0  0  0  0  0  0
  -16.3435  -15.9122  -24.6209 C   0  0  0  0  0  0
  -14.8481  -17.0241  -26.7457 N   0  0  0  0  0  0
  -15.0109  -15.6371  -26.7009 C   0  0  0  0  0  0
  -15.7285  -15.0104  -25.6626 C   0  0  0  0  0  0
  -15.8194  -13.5988  -25.6548 C   0  0  0  0  0  0
  -15.1729  -12.8609  -26.6792 C   0  0  0  0  0  0
  -14.4491  -13.5006  -27.6948 C   0  0  0  0  0  0
  -14.3995  -14.8952  -27.7234 C   0  0  0  0  0  0
  -16.9364  -15.5095  -23.6338 O   0  0  0  0  0  0
  -14.3982  -23.5321  -26.1730 C   0  0  0  0  0  0
  -15.6493  -24.4003  -25.9391 C   0  0  0  0  0  0
  -13.2843  -23.7603  -25.1146 C   0  0  0  0  0  0
  -13.9120  -23.8404  -27.4874 O   0  0  0  0  0  0
  -15.2481  -11.5208  -26.7386 F   0  0  0  0  0  0
  -13.2164  -25.0585  -27.7464 C   0  0  0  0  0  0
  -11.6999  -24.7992  -27.8436 C   0  0  0  0  0  0
  -11.3340  -24.3723  -29.1408 O   0  0  0  0  0  0
  -15.8111  -19.6773  -23.8779 H   0  0  0  0  0  0
  -14.5583  -19.2311  -28.0060 H   0  0  0  0  0  0
  -15.4394  -22.0905  -24.0446 H   0  0  0  0  0  0
  -14.1572  -21.5727  -28.1439 H   0  0  0  0  0  0
  -16.5857  -17.8489  -24.1528 H   0  0  0  0  0  0
  -16.3714  -13.0872  -24.8788 H   0  0  0  0  0  0
  -13.9652  -12.9162  -28.4642 H   0  0  0  0  0  0
  -13.8556  -15.3966  -28.5109 H   0  0  0  0  0  0
  -16.0446  -24.2780  -24.9305 H   0  0  0  0  0  0
  -16.4417  -24.1262  -26.6363 H   0  0  0  0  0  0
  -15.4631  -25.4610  -26.0885 H   0  0  0  0  0  0
  -13.6521  -23.5986  -24.1015 H   0  0  0  0  0  0
  -12.8482  -24.7589  -25.1304 H   0  0  0  0  0  0
  -12.4614  -23.0609  -25.2666 H   0  0  0  0  0  0
  -13.5850  -25.4779  -28.6831 H   0  0  0  0  0  0
  -13.4275  -25.8112  -26.9876 H   0  0  0  0  0  0
  -11.1551  -25.7197  -27.6312 H   0  0  0  0  0  0
  -11.3685  -24.0582  -27.1206 H   0  0  0  0  0  0
  -11.6199  -25.0264  -29.7617 H   0  0  0  0  0  0
  1  2  2  0  0  0
  1  3  1  0  0  0
  1  4  1  0  0  0
  2  5  1  0  0  0
  2 26  1  0  0  0
  3  6  2  0  0  0
  3 27  1  0  0  0
  4  8  1  0  0  0
  4 10  2  0  0  0
  5  7  2  0  0  0
  5 28  1  0  0  0
  6  7  1  0  0  0
  6 29  1  0  0  0
  7 18  1  0  0  0
  8  9  1  0  0  0
  8 30  1  0  0  0
  9 12  1  0  0  0
  9 17  2  0  0  0
 10 11  1  0  0  0
 11 12  2  0  0  0
 11 16  1  0  0  0
 12 13  1  0  0  0
 13 14  2  0  0  0
 13 31  1  0  0  0
 14 15  1  0  0  0
 14 22  1  0  0  0
 15 16  2  0  0  0
 15 32  1  0  0  0
 16 33  1  0  0  0
 18 19  1  0  0  0
 18 20  1  0  0  0
 18 21  1  0  0  0
 19 34  1  0  0  0
 19 35  1  0  0  0
 19 36  1  0  0  0
 20 37  1  0  0  0
 20 38  1  0  0  0
 20 39  1  0  0  0
 21 23  1  0  0  0
 23 24  1  0  0  0
 23 40  1  0  0  0
 23 41  1  0  0  0
 24 25  1  0  0  0
 24 42  1  0  0  0
 24 43  1  0  0  0
 25 44  1  0  0  0
M  END
> <s_m_entry_id>
442

> <Name>
5n

> <IC50[nM]>
14

> <s_m_Source_Path>
/projects/mai/users/kmzp800_harry/pmx_colab/docking_jobs/tnks2

> <s_m_Source_File>
tnks2_lig.sdf

> <i_m_Source_File_Index>
1

> <s_m_job_name>
glide-dock_SP_tnks2_core_const

> <r_i_docking_score>
-10.7854871029251

> <r_i_glide_gscore>
-10.7854871029251

> <r_i_glide_emodel>
-55.304321917716

$$$$
5j
                    3D
 Schrodinger Suite 2021-4.
 37 39  0  0  1  0            999 V2000
  -14.4468  -14.8613  -27.7036 C   0  0  0  0  0  0
  -15.0397  -15.6375  -26.6965 C   0  0  0  0  0  0
  -14.4493  -13.4650  -27.6118 C   0  0  0  0  0  0
  -15.7305  -15.0247  -25.6293 C   0  0  0  0  0  0
  -14.8483  -17.0235  -26.7541 N   0  0  0  0  0  0
  -15.1088  -12.8521  -26.5424 C   0  0  0  0  0  0
  -15.7804  -13.6140  -25.5583 C   0  0  0  0  0  0
  -16.3473  -15.9410  -24.6086 C   0  0  0  0  0  0
  -16.1389  -17.2422  -24.8139 N   0  0  0  0  0  0
  -16.9803  -15.5713  -23.6390 O   0  0  0  0  0  0
  -15.3770  -17.7880  -25.8412 C   0  0  0  0  0  0
  -15.2108  -19.2645  -25.9256 C   0  0  0  0  0  0
  -15.4429  -20.1064  -24.8204 C   0  0  0  0  0  0
  -15.2104  -21.4944  -24.9228 C   0  0  0  0  0  0
  -14.7380  -22.0528  -26.1303 C   0  0  0  0  0  0
  -14.5414  -21.2102  -27.2329 C   0  0  0  0  0  0
  -14.7778  -19.8375  -27.1322 C   0  0  0  0  0  0
  -14.4149  -23.5441  -26.2340 C   0  0  0  0  0  0
  -14.0698  -23.9727  -27.5349 O   0  0  0  0  0  0
  -15.0975  -11.5122  -26.4919 F   0  0  0  0  0  0
  -16.4412  -12.9854  -24.5612 F   0  0  0  0  0  0
  -15.6556  -24.3672  -25.8879 C   0  0  0  0  0  0
  -13.1865  -23.8589  -25.3759 C   0  0  0  0  0  0
  -13.9201  -15.3370  -28.5152 H   0  0  0  0  0  0
  -13.9563  -12.8598  -28.3620 H   0  0  0  0  0  0
  -16.5958  -17.8787  -24.1699 H   0  0  0  0  0  0
  -15.7685  -19.7013  -23.8717 H   0  0  0  0  0  0
  -15.3601  -22.1178  -24.0554 H   0  0  0  0  0  0
  -14.1660  -21.5728  -28.1742 H   0  0  0  0  0  0
  -14.5936  -19.2236  -28.0015 H   0  0  0  0  0  0
  -13.8742  -24.8972  -27.5005 H   0  0  0  0  0  0
  -16.0042  -24.1645  -24.8727 H   0  0  0  0  0  0
  -15.4844  -25.4394  -25.9393 H   0  0  0  0  0  0
  -16.4834  -24.1377  -26.5659 H   0  0  0  0  0  0
  -13.3988  -23.7272  -24.3116 H   0  0  0  0  0  0
  -12.8435  -24.8840  -25.5247 H   0  0  0  0  0  0
  -12.3534  -23.2039  -25.6279 H   0  0  0  0  0  0
  1  2  2  0  0  0
  1  3  1  0  0  0
  1 24  1  0  0  0
  2  4  1  0  0  0
  2  5  1  0  0  0
  3  6  2  0  0  0
  3 25  1  0  0  0
  4  7  2  0  0  0
  4  8  1  0  0  0
  5 11  2  0  0  0
  6  7  1  0  0  0
  6 20  1  0  0  0
  7 21  1  0  0  0
  8  9  1  0  0  0
  8 10  2  0  0  0
  9 11  1  0  0  0
  9 26  1  0  0  0
 11 12  1  0  0  0
 12 13  2  0  0  0
 12 17  1  0  0  0
 13 14  1  0  0  0
 13 27  1  0  0  0
 14 15  2  0  0  0
 14 28  1  0  0  0
 15 16  1  0  0  0
 15 18  1  0  0  0
 16 17  2  0  0  0
 16 29  1  0  0  0
 17 30  1  0  0  0
 18 19  1  0  0  0
 18 22  1  0  0  0
 18 23  1  0  0  0
 19 31  1  0  0  0
 22 32  1  0  0  0
 22 33  1  0  0  0
 22 34  1  0  0  0
 23 35  1  0  0  0
 23 36  1  0  0  0
 23 37  1  0  0  0
M  END
> <s_m_entry_id>
443

> <Name>
5j

> <IC50[nM]>
7.5

> <s_m_Source_Path>
/projects/mai/users/kmzp800_harry/pmx_colab/docking_jobs/tnks2

> <s_m_Source_File>
tnks2_lig.sdf

> <i_m_Source_File_Index>
2

> <s_m_job_name>
glide-dock_SP_tnks2_core_const

> <r_i_docking_score>
-10.4742799991757

> <r_i_glide_gscore>
-10.4742799991757

> <r_i_glide_emodel>
-54.4190680043814

$$$$
5f
                    3D
 Schrodinger Suite 2021-4.
 37 39  0  0  1  0            999 V2000
  -14.4482  -14.7292  -27.6411 C   0  0  0  0  0  0
  -15.0370  -15.5787  -26.6777 C   0  0  0  0  0  0
  -14.5375  -13.3317  -27.5068 C   0  0  0  0  0  0
  -15.7518  -15.0048  -25.5986 C   0  0  0  0  0  0
  -14.8482  -16.9722  -26.7573 N   0  0  0  0  0  0
  -15.2420  -12.7727  -26.4263 C   0  0  0  0  0  0
  -15.8646  -13.6047  -25.4758 C   0  0  0  0  0  0
  -16.3492  -15.9371  -24.5923 C   0  0  0  0  0  0
  -16.1217  -17.2328  -24.8099 N   0  0  0  0  0  0
  -16.9943  -15.5727  -23.6200 O   0  0  0  0  0  0
  -15.3638  -17.7614  -25.8552 C   0  0  0  0  0  0
  -15.1979  -19.2429  -25.9384 C   0  0  0  0  0  0
  -15.4354  -20.0756  -24.8218 C   0  0  0  0  0  0
  -15.2043  -21.4613  -24.9074 C   0  0  0  0  0  0
  -14.7304  -22.0376  -26.1050 C   0  0  0  0  0  0
  -14.5385  -21.2053  -27.2221 C   0  0  0  0  0  0
  -14.7799  -19.8315  -27.1449 C   0  0  0  0  0  0
  -14.3771  -23.5187  -26.1519 C   0  0  0  0  0  0
  -13.8518  -23.9412  -27.3945 O   0  0  0  0  0  0
  -15.6441  -24.3692  -25.9390 C   0  0  0  0  0  0
  -13.2482  -23.7726  -25.1387 C   0  0  0  0  0  0
  -13.7456  -15.2432  -28.6779 F   0  0  0  0  0  0
  -14.0610  -12.6844  -28.2302 H   0  0  0  0  0  0
  -15.2960  -11.6991  -26.3385 H   0  0  0  0  0  0
  -16.4072  -13.1718  -24.6469 H   0  0  0  0  0  0
  -16.5634  -17.8778  -24.1671 H   0  0  0  0  0  0
  -15.7640  -19.6647  -23.8786 H   0  0  0  0  0  0
  -15.3646  -22.0742  -24.0328 H   0  0  0  0  0  0
  -14.1553  -21.5727  -28.1542 H   0  0  0  0  0  0
  -14.5876  -19.2259  -28.0191 H   0  0  0  0  0  0
  -13.6215  -24.8551  -27.3272 H   0  0  0  0  0  0
  -16.0470  -24.2457  -24.9340 H   0  0  0  0  0  0
  -15.4558  -25.4308  -26.0900 H   0  0  0  0  0  0
  -16.4266  -24.0852  -26.6444 H   0  0  0  0  0  0
  -13.5842  -23.6412  -24.1099 H   0  0  0  0  0  0
  -12.8307  -24.7727  -25.2235 H   0  0  0  0  0  0
  -12.4281  -23.0746  -25.3007 H   0  0  0  0  0  0
  1  2  2  0  0  0
  1  3  1  0  0  0
  1 22  1  0  0  0
  2  4  1  0  0  0
  2  5  1  0  0  0
  3  6  2  0  0  0
  3 23  1  0  0  0
  4  7  2  0  0  0
  4  8  1  0  0  0
  5 11  2  0  0  0
  6  7  1  0  0  0
  6 24  1  0  0  0
  7 25  1  0  0  0
  8  9  1  0  0  0
  8 10  2  0  0  0
  9 11  1  0  0  0
  9 26  1  0  0  0
 11 12  1  0  0  0
 12 13  2  0  0  0
 12 17  1  0  0  0
 13 14  1  0  0  0
 13 27  1  0  0  0
 14 15  2  0  0  0
 14 28  1  0  0  0
 15 16  1  0  0  0
 15 18  1  0  0  0
 16 17  2  0  0  0
 16 29  1  0  0  0
 17 30  1  0  0  0
 18 19  1  0  0  0
 18 20  1  0  0  0
 18 21  1  0  0  0
 19 31  1  0  0  0
 20 32  1  0  0  0
 20 33  1  0  0  0
 20 34  1  0  0  0
 21 35  1  0  0  0
 21 36  1  0  0  0
 21 37  1  0  0  0
M  END
> <s_m_entry_id>
444

> <Name>
5f

> <IC50[nM]>
30

> <s_m_Source_Path>
/projects/mai/users/kmzp800_harry/pmx_colab/docking_jobs/tnks2

> <s_m_Source_File>
tnks2_lig.sdf

> <i_m_Source_File_Index>
3

> <s_m_job_name>
glide-dock_SP_tnks2_core_const

> <r_i_docking_score>
-10.6805332657466

> <r_i_glide_gscore>
-10.6805332657466

> <r_i_glide_emodel>
-61.0110095893544

$$$$
8d
                    3D
 Schrodinger Suite 2021-4.
 46 49  0  0  1  0            999 V2000
  -14.4136  -14.7858  -27.6938 C   0  0  0  0  0  0
  -15.0205  -15.6112  -26.7150 C   0  0  0  0  0  0
  -14.4902  -13.4036  -27.6233 C   0  0  0  0  0  0
  -15.7602  -15.0064  -25.6718 C   0  0  0  0  0  0
  -14.8481  -17.0077  -26.7541 N   0  0  0  0  0  0
  -15.2473  -12.8079  -26.6309 C   0  0  0  0  0  0
  -15.8918  -13.5892  -25.6348 C   0  0  0  0  0  0
  -16.3771  -15.9350  -24.6539 C   0  0  0  0  0  0
  -16.1142  -17.2376  -24.8111 N   0  0  0  0  0  0
  -17.0876  -15.5727  -23.7304 O   0  0  0  0  0  0
  -15.3606  -17.7819  -25.8437 C   0  0  0  0  0  0
  -15.1976  -19.2597  -25.9283 C   0  0  0  0  0  0
  -14.7808  -19.8387  -27.1383 C   0  0  0  0  0  0
  -14.5667  -21.2154  -27.2217 C   0  0  0  0  0  0
  -14.7779  -22.0572  -26.1125 C   0  0  0  0  0  0
  -15.2338  -21.4871  -24.9063 C   0  0  0  0  0  0
  -15.4423  -20.0961  -24.8173 C   0  0  0  0  0  0
  -13.6276  -15.3105  -28.8449 C   0  0  0  0  0  0
  -15.3464  -11.4737  -26.7386 F   0  0  0  0  0  0
  -14.5089  -23.5501  -26.2177 C   0  0  0  0  0  0
  -15.5158  -24.2355  -27.1617 C   0  0  0  0  0  0
  -15.2036  -25.7292  -27.3369 C   0  0  0  0  0  0
  -13.8110  -25.9276  -27.7987 N   0  3  0  0  0  0
  -12.8043  -25.3392  -26.8874 C   0  0  0  0  0  0
  -13.0620  -23.8389  -26.6743 C   0  0  0  0  0  0
  -14.0127  -12.7840  -28.3701 H   0  0  0  0  0  0
  -16.4779  -13.1112  -24.8621 H   0  0  0  0  0  0
  -16.5639  -17.8685  -24.1590 H   0  0  0  0  0  0
  -14.5864  -19.2330  -28.0117 H   0  0  0  0  0  0
  -14.2084  -21.5727  -28.1661 H   0  0  0  0  0  0
  -15.4100  -22.1066  -24.0394 H   0  0  0  0  0  0
  -15.7678  -19.6840  -23.8734 H   0  0  0  0  0  0
  -13.6482  -16.3728  -28.7753 H   0  0  0  0  0  0
  -14.0482  -14.9855  -29.7934 H   0  0  0  0  0  0
  -12.5920  -14.9912  -28.8218 H   0  0  0  0  0  0
  -14.6355  -23.9739  -25.2204 H   0  0  0  0  0  0
  -16.5293  -24.1118  -26.7770 H   0  0  0  0  0  0
  -15.4990  -23.7554  -28.1391 H   0  0  0  0  0  0
  -15.3595  -26.2563  -26.3967 H   0  0  0  0  0  0
  -15.8866  -26.1741  -28.0612 H   0  0  0  0  0  0
  -13.6306  -26.9184  -27.8867 H   0  0  0  0  0  0
  -12.8227  -25.8695  -25.9386 H   0  0  0  0  0  0
  -11.8087  -25.4904  -27.3067 H   0  0  0  0  0  0
  -12.8479  -23.3200  -27.6075 H   0  0  0  0  0  0
  -12.3603  -23.4441  -25.9385 H   0  0  0  0  0  0
  -13.7092  -25.5015  -28.7087 H   0  0  0  0  0  0
  1  2  2  0  0  0
  1  3  1  0  0  0
  1 18  1  0  0  0
  2  4  1  0  0  0
  2  5  1  0  0  0
  3  6  2  0  0  0
  3 26  1  0  0  0
  4  7  2  0  0  0
  4  8  1  0  0  0
  5 11  2  0  0  0
  6  7  1  0  0  0
  6 19  1  0  0  0
  7 27  1  0  0  0
  8  9  1  0  0  0
  8 10  2  0  0  0
  9 11  1  0  0  0
  9 28  1  0  0  0
 11 12  1  0  0  0
 12 13  2  0  0  0
 12 17  1  0  0  0
 13 14  1  0  0  0
 13 29  1  0  0  0
 14 15  2  0  0  0
 14 30  1  0  0  0
 15 16  1  0  0  0
 15 20  1  0  0  0
 16 17  2  0  0  0
 16 31  1  0  0  0
 17 32  1  0  0  0
 18 33  1  0  0  0
 18 34  1  0  0  0
 18 35  1  0  0  0
 20 21  1  0  0  0
 20 25  1  0  0  0
 20 36  1  0  0  0
 21 22  1  0  0  0
 21 37  1  0  0  0
 21 38  1  0  0  0
 22 23  1  0  0  0
 22 39  1  0  0  0
 22 40  1  0  0  0
 23 24  1  0  0  0
 23 41  1  0  0  0
 23 46  1  0  0  0
 24 25  1  0  0  0
 24 42  1  0  0  0
 24 43  1  0  0  0
 25 44  1  0  0  0
 25 45  1  0  0  0
M  CHG  1  23   1
M  END
> <s_m_entry_id>
445

> <Name>
8d

> <IC50[nM]>
0.7

> <s_m_Source_Path>
/projects/mai/users/kmzp800_harry/pmx_colab/docking_jobs/tnks2

> <s_m_Source_File>
tnks2_lig.sdf

> <i_m_Source_File_Index>
4

> <s_m_job_name>
glide-dock_SP_tnks2_core_const

> <r_i_docking_score>
-10.2728351022244

> <r_i_glide_gscore>
-10.2728351022244

> <r_i_glide_emodel>
-36.3164797435312

$$$$
5b
                    3D
 Schrodinger Suite 2021-4.
 37 39  0  0  1  0            999 V2000
  -14.4475  -14.8119  -27.6994 C   0  0  0  0  0  0
  -15.0314  -15.6217  -26.7063 C   0  0  0  0  0  0
  -14.4779  -13.4108  -27.5862 C   0  0  0  0  0  0
  -15.7288  -15.0226  -25.6310 C   0  0  0  0  0  0
  -14.8484  -17.0104  -26.7688 N   0  0  0  0  0  0
  -15.1545  -12.8138  -26.5089 C   0  0  0  0  0  0
  -15.7944  -13.6128  -25.5416 C   0  0  0  0  0  0
  -16.3499  -15.9446  -24.6174 C   0  0  0  0  0  0
  -16.1133  -17.2454  -24.8129 N   0  0  0  0  0  0
  -17.0160  -15.5727  -23.6622 O   0  0  0  0  0  0
  -15.3601  -17.7854  -25.8550 C   0  0  0  0  0  0
  -15.1931  -19.2610  -25.9396 C   0  0  0  0  0  0
  -15.4254  -20.0996  -24.8305 C   0  0  0  0  0  0
  -15.2026  -21.4874  -24.9371 C   0  0  0  0  0  0
  -14.7375  -22.0526  -26.1481 C   0  0  0  0  0  0
  -14.5442  -21.2076  -27.2520 C   0  0  0  0  0  0
  -14.7806  -19.8364  -27.1537 C   0  0  0  0  0  0
  -14.4029  -23.5378  -26.2457 C   0  0  0  0  0  0
  -13.9994  -23.9591  -27.5377 O   0  0  0  0  0  0
  -15.6480  -24.3728  -25.9386 C   0  0  0  0  0  0
  -13.2073  -23.8374  -25.3338 C   0  0  0  0  0  0
  -16.4479  -13.0058  -24.5312 F   0  0  0  0  0  0
  -13.9189  -15.2679  -28.5243 H   0  0  0  0  0  0
  -13.9943  -12.7916  -28.3283 H   0  0  0  0  0  0
  -15.1845  -11.7380  -26.4303 H   0  0  0  0  0  0
  -16.5588  -17.8835  -24.1651 H   0  0  0  0  0  0
  -15.7481  -19.6966  -23.8820 H   0  0  0  0  0  0
  -15.3584  -22.1125  -24.0701 H   0  0  0  0  0  0
  -14.1751  -21.5727  -28.1916 H   0  0  0  0  0  0
  -14.5925  -19.2255  -28.0248 H   0  0  0  0  0  0
  -13.7938  -24.8805  -27.5019 H   0  0  0  0  0  0
  -15.9723  -24.2541  -24.9048 H   0  0  0  0  0  0
  -15.4797  -25.4351  -26.1082 H   0  0  0  0  0  0
  -16.4805  -24.0794  -26.5800 H   0  0  0  0  0  0
  -13.4530  -23.7033  -24.2800 H   0  0  0  0  0  0
  -12.8395  -24.8515  -25.4688 H   0  0  0  0  0  0
  -12.3777  -23.1694  -25.5608 H   0  0  0  0  0  0
  1  2  2  0  0  0
  1  3  1  0  0  0
  1 23  1  0  0  0
  2  4  1  0  0  0
  2  5  1  0  0  0
  3  6  2  0  0  0
  3 24  1  0  0  0
  4  7  2  0  0  0
  4  8  1  0  0  0
  5 11  2  0  0  0
  6  7  1  0  0  0
  6 25  1  0  0  0
  7 22  1  0  0  0
  8  9  1  0  0  0
  8 10  2  0  0  0
  9 11  1  0  0  0
  9 26  1  0  0  0
 11 12  1  0  0  0
 12 13  2  0  0  0
 12 17  1  0  0  0
 13 14  1  0  0  0
 13 27  1  0  0  0
 14 15  2  0  0  0
 14 28  1  0  0  0
 15 16  1  0  0  0
 15 18  1  0  0  0
 16 17  2  0  0  0
 16 29  1  0  0  0
 17 30  1  0  0  0
 18 19  1  0  0  0
 18 20  1  0  0  0
 18 21  1  0  0  0
 19 31  1  0  0  0
 20 32  1  0  0  0
 20 33  1  0  0  0
 20 34  1  0  0  0
 21 35  1  0  0  0
 21 36  1  0  0  0
 21 37  1  0  0  0
M  END
> <s_m_entry_id>
446

> <Name>
5b

> <IC50[nM]>
21

> <s_m_Source_Path>
/projects/mai/users/kmzp800_harry/pmx_colab/docking_jobs/tnks2

> <s_m_Source_File>
tnks2_lig.sdf

> <i_m_Source_File_Index>
5

> <s_m_job_name>
glide-dock_SP_tnks2_core_const

> <r_i_docking_score>
-10.3072422773029

> <r_i_glide_gscore>
-10.3072422773029

> <r_i_glide_emodel>
-55.3606082131015

$$$$
3b
                    3D
 Schrodinger Suite 2021-4.
 39 41  0  0  1  0            999 V2000
  -14.4040  -14.8980  -27.7214 C   0  0  0  0  0  0
  -15.0170  -15.6382  -26.7007 C   0  0  0  0  0  0
  -14.4499  -13.5055  -27.6874 C   0  0  0  0  0  0
  -15.7346  -15.0225  -25.6540 C   0  0  0  0  0  0
  -14.8480  -17.0292  -26.7509 N   0  0  0  0  0  0
  -15.1796  -12.8688  -26.6743 C   0  0  0  0  0  0
  -15.8266  -13.6092  -25.6476 C   0  0  0  0  0  0
  -16.3513  -15.9448  -24.6232 C   0  0  0  0  0  0
  -16.1225  -17.2479  -24.8128 N   0  0  0  0  0  0
  -17.0202  -15.5726  -23.6697 O   0  0  0  0  0  0
  -15.3705  -17.8007  -25.8449 C   0  0  0  0  0  0
  -15.2127  -19.2788  -25.9305 C   0  0  0  0  0  0
  -15.4597  -20.1118  -24.8257 C   0  0  0  0  0  0
  -15.2242  -21.4961  -24.9171 C   0  0  0  0  0  0
  -14.7527  -22.0884  -26.1117 C   0  0  0  0  0  0
  -14.5352  -21.2376  -27.2153 C   0  0  0  0  0  0
  -14.7748  -19.8656  -27.1306 C   0  0  0  0  0  0
  -15.2483  -11.5265  -26.7389 F   0  0  0  0  0  0
  -14.4667  -23.5935  -26.1762 C   0  0  0  0  0  0
  -13.2559  -23.9109  -25.2788 C   0  0  0  0  0  0
  -14.1013  -24.0990  -27.5795 C   0  0  0  0  0  0
  -15.7303  -24.3726  -25.7571 C   0  0  0  0  0  0
  -13.8570  -15.4035  -28.5048 H   0  0  0  0  0  0
  -13.9589  -12.9209  -28.4526 H   0  0  0  0  0  0
  -16.3802  -13.0953  -24.8713 H   0  0  0  0  0  0
  -16.5674  -17.8816  -24.1633 H   0  0  0  0  0  0
  -15.7956  -19.7034  -23.8844 H   0  0  0  0  0  0
  -15.3914  -22.1093  -24.0461 H   0  0  0  0  0  0
  -14.1495  -21.5727  -28.1561 H   0  0  0  0  0  0
  -14.5682  -19.2575  -28.0008 H   0  0  0  0  0  0
  -12.8473  -24.8878  -25.5373 H   0  0  0  0  0  0
  -13.4961  -23.8877  -24.2175 H   0  0  0  0  0  0
  -12.4486  -23.1948  -25.4427 H   0  0  0  0  0  0
  -14.9048  -23.9345  -28.2963 H   0  0  0  0  0  0
  -13.1840  -23.6329  -27.9386 H   0  0  0  0  0  0
  -13.9182  -25.1738  -27.5730 H   0  0  0  0  0  0
  -16.5912  -24.0404  -26.3381 H   0  0  0  0  0  0
  -15.6394  -25.4423  -25.9389 H   0  0  0  0  0  0
  -15.9752  -24.2369  -24.7039 H   0  0  0  0  0  0
  1  2  2  0  0  0
  1  3  1  0  0  0
  1 23  1  0  0  0
  2  4  1  0  0  0
  2  5  1  0  0  0
  3  6  2  0  0  0
  3 24  1  0  0  0
  4  7  2  0  0  0
  4  8  1  0  0  0
  5 11  2  0  0  0
  6  7  1  0  0  0
  6 18  1  0  0  0
  7 25  1  0  0  0
  8  9  1  0  0  0
  8 10  2  0  0  0
  9 11  1  0  0  0
  9 26  1  0  0  0
 11 12  1  0  0  0
 12 13  2  0  0  0
 12 17  1  0  0  0
 13 14  1  0  0  0
 13 27  1  0  0  0
 14 15  2  0  0  0
 14 28  1  0  0  0
 15 16  1  0  0  0
 15 19  1  0  0  0
 16 17  2  0  0  0
 16 29  1  0  0  0
 17 30  1  0  0  0
 19 20  1  0  0  0
 19 21  1  0  0  0
 19 22  1  0  0  0
 20 31  1  0  0  0
 20 32  1  0  0  0
 20 33  1  0  0  0
 21 34  1  0  0  0
 21 35  1  0  0  0
 21 36  1  0  0  0
 22 37  1  0  0  0
 22 38  1  0  0  0
 22 39  1  0  0  0
M  END
> <s_m_entry_id>
447

> <Name>
3b

> <IC50[nM]>
3.6

> <s_m_Source_Path>
/projects/mai/users/kmzp800_harry/pmx_colab/docking_jobs/tnks2

> <s_m_Source_File>
tnks2_lig.sdf

> <i_m_Source_File_Index>
6

> <s_m_job_name>
glide-dock_SP_tnks2_core_const

> <r_i_docking_score>
-10.6156609355518

> <r_i_glide_gscore>
-10.6156609355518

> <r_i_glide_emodel>
-39.0046013133413

$$$$
1b
                    3D
 Schrodinger Suite 2021-4.
 31 33  0  0  1  0            999 V2000
  -15.1953  -19.2450  -25.9395 C   0  0  0  0  0  0
  -14.7816  -19.8429  -27.1456 C   0  0  0  0  0  0
  -15.4332  -20.0777  -24.8228 C   0  0  0  0  0  0
  -14.5604  -21.2239  -27.2212 C   0  0  0  0  0  0
  -15.2394  -21.4674  -24.9085 C   0  0  0  0  0  0
  -14.8482  -16.9855  -26.7708 N   0  0  0  0  0  0
  -14.7903  -22.0599  -26.1034 C   0  0  0  0  0  0
  -15.0464  -15.5946  -26.6953 C   0  0  0  0  0  0
  -15.7716  -15.0117  -25.6328 C   0  0  0  0  0  0
  -15.2392  -12.7860  -26.4708 C   0  0  0  0  0  0
  -14.5233  -13.3590  -27.5362 C   0  0  0  0  0  0
  -15.8867  -13.6085  -25.5268 C   0  0  0  0  0  0
  -14.4483  -14.7610  -27.6618 C   0  0  0  0  0  0
  -16.3908  -15.9390  -24.6263 C   0  0  0  0  0  0
  -16.1212  -17.2376  -24.8103 N   0  0  0  0  0  0
  -15.3618  -17.7652  -25.8567 C   0  0  0  0  0  0
  -17.1037  -15.5685  -23.7201 O   0  0  0  0  0  0
  -14.5768  -19.2396  -28.0180 H   0  0  0  0  0  0
  -15.7439  -19.6640  -23.8706 H   0  0  0  0  0  0
  -14.1980  -21.5735  -28.1638 H   0  0  0  0  0  0
  -15.4055  -22.0825  -24.0380 H   0  0  0  0  0  0
  -14.0265  -12.7204  -28.2591 H   0  0  0  0  0  0
  -16.4415  -13.1645  -24.7137 H   0  0  0  0  0  0
  -16.5269  -17.8872  -24.1474 H   0  0  0  0  0  0
  -13.8812  -15.1964  -28.4745 H   0  0  0  0  0  0
  -15.2963  -11.7131  -26.3881 H   0  0  0  0  0  0
  -14.6047  -23.4230  -26.0930 O   0  0  0  0  0  0
  -14.1700  -24.0497  -27.2873 C   0  0  0  0  0  0
  -14.0386  -25.1158  -27.1084 H   0  0  0  0  0  0
  -13.2129  -23.6560  -27.6303 H   0  0  0  0  0  0
  -14.9145  -23.9437  -28.0748 H   0  0  0  0  0  0
  1  2  2  0  0  0
  1  3  1  0  0  0
  1 16  1  0  0  0
  2  4  1  0  0  0
  2 18  1  0  0  0
  3  5  2  0  0  0
  3 19  1  0  0  0
  4  7  2  0  0  0
  4 20  1  0  0  0
  5  7  1  0  0  0
  5 21  1  0  0  0
  6  8  1  0  0  0
  6 16  2  0  0  0
  7 27  1  0  0  0
  8  9  2  0  0  0
  8 13  1  0  0  0
  9 12  1  0  0  0
  9 14  1  0  0  0
 10 11  1  0  0  0
 10 12  2  0  0  0
 10 26  1  0  0  0
 11 13  2  0  0  0
 11 22  1  0  0  0
 12 23  1  0  0  0
 13 25  1  0  0  0
 14 15  1  0  0  0
 14 17  2  0  0  0
 15 16  1  0  0  0
 15 24  1  0  0  0
 27 28  1  0  0  0
 28 29  1  0  0  0
 28 30  1  0  0  0
 28 31  1  0  0  0
M  END
> <s_m_entry_id>
448

> <Name>
1b

> <IC50[nM]>
52

> <s_m_Source_Path>
/projects/mai/users/kmzp800_harry/pmx_colab/docking_jobs/tnks2

> <s_m_Source_File>
tnks2_lig.sdf

> <i_m_Source_File_Index>
7

> <s_m_job_name>
glide-dock_SP_tnks2_core_const

> <r_i_docking_score>
-9.78746051368416

> <r_i_glide_gscore>
-9.78746051368416

> <r_i_glide_emodel>
-58.2614022025621

$$$$
3a
                    3D
 Schrodinger Suite 2021-4.
 39 41  0  0  1  0            999 V2000
  -14.8491  -16.9877  -26.7585 N   0  0  0  0  0  0
  -15.3650  -17.7734  -25.8552 C   0  0  0  0  0  0
  -16.1286  -17.2462  -24.8126 N   0  0  0  0  0  0
  -16.3583  -15.9488  -24.5975 C   0  0  0  0  0  0
  -17.0066  -15.5727  -23.6306 O   0  0  0  0  0  0
  -15.1966  -19.2503  -25.9386 C   0  0  0  0  0  0
  -14.7815  -19.8386  -27.1450 C   0  0  0  0  0  0
  -14.5566  -21.2161  -27.2239 C   0  0  0  0  0  0
  -14.7524  -22.0524  -26.1073 C   0  0  0  0  0  0
  -15.2082  -21.4656  -24.9053 C   0  0  0  0  0  0
  -15.4326  -20.0810  -24.8226 C   0  0  0  0  0  0
  -14.4220  -23.5453  -26.1444 C   0  0  0  0  0  0
  -15.0402  -15.5976  -26.6816 C   0  0  0  0  0  0
  -15.7558  -15.0192  -25.6057 C   0  0  0  0  0  0
  -15.8652  -13.6175  -25.4955 C   0  0  0  0  0  0
  -15.2446  -12.7954  -26.4563 C   0  0  0  0  0  0
  -14.5336  -13.3630  -27.5316 C   0  0  0  0  0  0
  -14.4483  -14.7631  -27.6497 C   0  0  0  0  0  0
  -13.2561  -23.7737  -25.1639 C   0  0  0  0  0  0
  -13.9977  -24.0672  -27.5347 C   0  0  0  0  0  0
  -15.6783  -24.3477  -25.7494 C   0  0  0  0  0  0
  -16.5708  -17.8950  -24.1727 H   0  0  0  0  0  0
  -14.5914  -19.2328  -28.0200 H   0  0  0  0  0  0
  -14.1896  -21.5727  -28.1664 H   0  0  0  0  0  0
  -15.3662  -22.0705  -24.0245 H   0  0  0  0  0  0
  -15.7578  -19.6733  -23.8779 H   0  0  0  0  0  0
  -16.4083  -13.1697  -24.6743 H   0  0  0  0  0  0
  -15.2999  -11.7223  -26.3735 H   0  0  0  0  0  0
  -14.0600  -12.7207  -28.2642 H   0  0  0  0  0  0
  -13.8963  -15.1957  -28.4699 H   0  0  0  0  0  0
  -12.8468  -24.7734  -25.2405 H   0  0  0  0  0  0
  -13.5524  -23.6153  -24.1275 H   0  0  0  0  0  0
  -12.4385  -23.0848  -25.3763 H   0  0  0  0  0  0
  -14.8117  -23.9733  -28.2533 H   0  0  0  0  0  0
  -13.1160  -23.5674  -27.9384 H   0  0  0  0  0  0
  -13.7516  -25.1304  -27.4908 H   0  0  0  0  0  0
  -16.5373  -24.0320  -26.3401 H   0  0  0  0  0  0
  -15.5593  -25.4145  -25.9384 H   0  0  0  0  0  0
  -15.9380  -24.2221  -24.6981 H   0  0  0  0  0  0
  1  2  2  0  0  0
  1 13  1  0  0  0
  2  3  1  0  0  0
  2  6  1  0  0  0
  3  4  1  0  0  0
  3 22  1  0  0  0
  4  5  2  0  0  0
  4 14  1  0  0  0
  6  7  2  0  0  0
  6 11  1  0  0  0
  7  8  1  0  0  0
  7 23  1  0  0  0
  8  9  2  0  0  0
  8 24  1  0  0  0
  9 10  1  0  0  0
  9 12  1  0  0  0
 10 11  2  0  0  0
 10 25  1  0  0  0
 11 26  1  0  0  0
 12 19  1  0  0  0
 12 20  1  0  0  0
 12 21  1  0  0  0
 13 14  2  0  0  0
 13 18  1  0  0  0
 14 15  1  0  0  0
 15 16  2  0  0  0
 15 27  1  0  0  0
 16 17  1  0  0  0
 16 28  1  0  0  0
 17 18  2  0  0  0
 17 29  1  0  0  0
 18 30  1  0  0  0
 19 31  1  0  0  0
 19 32  1  0  0  0
 19 33  1  0  0  0
 20 34  1  0  0  0
 20 35  1  0  0  0
 20 36  1  0  0  0
 21 37  1  0  0  0
 21 38  1  0  0  0
 21 39  1  0  0  0
M  END
> <s_m_entry_id>
449

> <Name>
3a

> <IC50[nM]>
8.7

> <s_m_Source_Path>
/projects/mai/users/kmzp800_harry/pmx_colab/docking_jobs/tnks2

> <s_m_Source_File>
tnks2_lig.sdf

> <i_m_Source_File_Index>
8

> <s_m_job_name>
glide-dock_SP_tnks2_core_const

> <r_i_docking_score>
-10.5914366202532

> <r_i_glide_gscore>
-10.5914366202532

> <r_i_glide_emodel>
-56.1364701542099

$$$$
1a
                    3D
 Schrodinger Suite 2021-4.
 27 29  0  0  1  0            999 V2000
  -15.2010  -19.2539  -25.9337 C   0  0  0  0  0  0
  -14.7805  -19.8427  -27.1386 C   0  0  0  0  0  0
  -15.4531  -20.0861  -24.8172 C   0  0  0  0  0  0
  -14.5561  -21.2217  -27.2108 C   0  0  0  0  0  0
  -15.2482  -21.4782  -24.9039 C   0  0  0  0  0  0
  -14.8482  -16.9901  -26.7617 N   0  0  0  0  0  0
  -14.7872  -22.0510  -26.1024 C   0  0  0  0  0  0
  -15.0380  -15.5999  -26.6885 C   0  0  0  0  0  0
  -15.7571  -15.0157  -25.6200 C   0  0  0  0  0  0
  -15.2479  -12.7917  -26.4817 C   0  0  0  0  0  0
  -14.5269  -13.3694  -27.5422 C   0  0  0  0  0  0
  -15.8760  -13.6116  -25.5230 C   0  0  0  0  0  0
  -14.4482  -14.7699  -27.6622 C   0  0  0  0  0  0
  -16.3622  -15.9457  -24.6115 C   0  0  0  0  0  0
  -16.1170  -17.2423  -24.8115 N   0  0  0  0  0  0
  -15.3614  -17.7743  -25.8541 C   0  0  0  0  0  0
  -17.0344  -15.5727  -23.6615 O   0  0  0  0  0  0
  -14.5638  -19.2417  -28.0099 H   0  0  0  0  0  0
  -15.7995  -19.6722  -23.8829 H   0  0  0  0  0  0
  -14.1758  -21.5991  -28.1369 H   0  0  0  0  0  0
  -15.4326  -22.1052  -24.0446 H   0  0  0  0  0  0
  -14.0508  -12.7354  -28.2780 H   0  0  0  0  0  0
  -16.4313  -13.1595  -24.7130 H   0  0  0  0  0  0
  -16.5577  -17.8876  -24.1672 H   0  0  0  0  0  0
  -13.9018  -15.2086  -28.4838 H   0  0  0  0  0  0
  -15.3164  -11.7166  -26.4182 H   0  0  0  0  0  0
  -14.6071  -23.1143  -26.1720 H   0  0  0  0  0  0
  1  2  2  0  0  0
  1  3  1  0  0  0
  1 16  1  0  0  0
  2  4  1  0  0  0
  2 18  1  0  0  0
  3  5  2  0  0  0
  3 19  1  0  0  0
  4  7  2  0  0  0
  4 20  1  0  0  0
  5  7  1  0  0  0
  5 21  1  0  0  0
  6  8  1  0  0  0
  6 16  2  0  0  0
  7 27  1  0  0  0
  8  9  2  0  0  0
  8 13  1  0  0  0
  9 12  1  0  0  0
  9 14  1  0  0  0
 10 11  1  0  0  0
 10 12  2  0  0  0
 10 26  1  0  0  0
 11 13  2  0  0  0
 11 22  1  0  0  0
 12 23  1  0  0  0
 13 25  1  0  0  0
 14 15  1  0  0  0
 14 17  2  0  0  0
 15 16  1  0  0  0
 15 24  1  0  0  0
M  END
> <s_m_entry_id>
450

> <Name>
1a

> <IC50[nM]>
540

> <s_m_Source_Path>
/projects/mai/users/kmzp800_harry/pmx_colab/docking_jobs/tnks2

> <s_m_Source_File>
tnks2_lig.sdf

> <i_m_Source_File_Index>
9

> <s_m_job_name>
glide-dock_SP_tnks2_core_const

> <r_i_docking_score>
-10.0226077008914

> <r_i_glide_gscore>
-10.0226077008914

> <r_i_glide_emodel>
-55.9222934226107

$$$$
5o
                    3D
 Schrodinger Suite 2021-4.
 47 49  0  0  1  0            999 V2000
  -15.2007  -19.2586  -25.9347 C   0  0  0  0  0  0
  -15.4473  -20.0790  -24.8155 C   0  0  0  0  0  0
  -14.7812  -19.8411  -27.1447 C   0  0  0  0  0  0
  -15.2223  -21.4609  -24.8982 C   0  0  0  0  0  0
  -14.5685  -21.2172  -27.2258 C   0  0  0  0  0  0
  -14.8483  -17.0196  -26.7592 N   0  0  0  0  0  0
  -14.7615  -22.0473  -26.1041 C   0  0  0  0  0  0
  -14.4098  -23.5352  -26.1944 C   0  0  0  0  0  0
  -15.0185  -15.6301  -26.7066 C   0  0  0  0  0  0
  -15.7343  -15.0140  -25.6548 C   0  0  0  0  0  0
  -15.2020  -12.8349  -26.6430 C   0  0  0  0  0  0
  -14.4893  -13.4552  -27.6599 C   0  0  0  0  0  0
  -15.8378  -13.5968  -25.6240 C   0  0  0  0  0  0
  -14.4371  -14.8421  -27.7198 C   0  0  0  0  0  0
  -16.3524  -15.9370  -24.6335 C   0  0  0  0  0  0
  -16.1089  -17.2426  -24.8132 N   0  0  0  0  0  0
  -15.3634  -17.7878  -25.8494 C   0  0  0  0  0  0
  -17.0347  -15.5719  -23.6884 O   0  0  0  0  0  0
  -15.6953  -24.3512  -25.9158 C   0  0  0  0  0  0
  -13.9870  -23.8528  -27.5360 O   0  0  0  0  0  0
  -13.2795  -23.7796  -25.1610 C   0  0  0  0  0  0
  -13.6836  -15.4288  -28.8803 C   0  0  0  0  0  0
  -15.2589  -11.4929  -26.7386 F   0  0  0  0  0  0
  -13.3001  -25.0729  -27.8099 C   0  0  0  0  0  0
  -11.7752  -24.8445  -27.8887 C   0  0  0  0  0  0
  -11.3886  -24.3683  -29.1622 O   0  0  0  0  0  0
  -15.7731  -19.6602  -23.8757 H   0  0  0  0  0  0
  -14.5875  -19.2356  -28.0188 H   0  0  0  0  0  0
  -15.3832  -22.0703  -24.0203 H   0  0  0  0  0  0
  -14.1974  -21.5727  -28.1674 H   0  0  0  0  0  0
  -14.0136  -12.8504  -28.4204 H   0  0  0  0  0  0
  -16.3934  -13.1072  -24.8352 H   0  0  0  0  0  0
  -16.5592  -17.8714  -24.1600 H   0  0  0  0  0  0
  -16.0296  -24.2311  -24.8850 H   0  0  0  0  0  0
  -16.5072  -24.0002  -26.5528 H   0  0  0  0  0  0
  -15.6203  -25.4201  -26.1005 H   0  0  0  0  0  0
  -13.6303  -23.6383  -24.1385 H   0  0  0  0  0  0
  -12.8478  -24.7725  -25.1997 H   0  0  0  0  0  0
  -12.4559  -23.0799  -25.3101 H   0  0  0  0  0  0
  -13.7527  -14.7866  -29.7597 H   0  0  0  0  0  0
  -12.6314  -15.5711  -28.6591 H   0  0  0  0  0  0
  -14.1142  -16.3863  -29.1343 H   0  0  0  0  0  0
  -13.6648  -25.4616  -28.7611 H   0  0  0  0  0  0
  -13.5394  -25.8354  -27.0686 H   0  0  0  0  0  0
  -11.2509  -25.7828  -27.7133 H   0  0  0  0  0  0
  -11.4278  -24.1520  -27.1276 H   0  0  0  0  0  0
  -11.6813  -24.9922  -29.8085 H   0  0  0  0  0  0
  1  2  2  0  0  0
  1  3  1  0  0  0
  1 17  1  0  0  0
  2  4  1  0  0  0
  2 27  1  0  0  0
  3  5  2  0  0  0
  3 28  1  0  0  0
  4  7  2  0  0  0
  4 29  1  0  0  0
  5  7  1  0  0  0
  5 30  1  0  0  0
  6  9  1  0  0  0
  6 17  2  0  0  0
  7  8  1  0  0  0
  8 19  1  0  0  0
  8 20  1  0  0  0
  8 21  1  0  0  0
  9 10  2  0  0  0
  9 14  1  0  0  0
 10 13  1  0  0  0
 10 15  1  0  0  0
 11 12  1  0  0  0
 11 13  2  0  0  0
 11 23  1  0  0  0
 12 14  2  0  0  0
 12 31  1  0  0  0
 13 32  1  0  0  0
 14 22  1  0  0  0
 15 16  1  0  0  0
 15 18  2  0  0  0
 16 17  1  0  0  0
 16 33  1  0  0  0
 19 34  1  0  0  0
 19 35  1  0  0  0
 19 36  1  0  0  0
 20 24  1  0  0  0
 21 37  1  0  0  0
 21 38  1  0  0  0
 21 39  1  0  0  0
 22 40  1  0  0  0
 22 41  1  0  0  0
 22 42  1  0  0  0
 24 25  1  0  0  0
 24 43  1  0  0  0
 24 44  1  0  0  0
 25 26  1  0  0  0
 25 45  1  0  0  0
 25 46  1  0  0  0
 26 47  1  0  0  0
M  END
> <s_m_entry_id>
451

> <Name>
5o

> <IC50[nM]>
1.5

> <s_m_Source_Path>
/projects/mai/users/kmzp800_harry/pmx_colab/docking_jobs/tnks2

> <s_m_Source_File>
tnks2_lig.sdf

> <i_m_Source_File_Index>
10

> <s_m_job_name>
glide-dock_SP_tnks2_core_const

> <r_i_docking_score>
-10.8254370590954

> <r_i_glide_gscore>
-10.8254370590954

> <r_i_glide_emodel>
-44.1108570529412

$$$$
5k
                    3D
 Schrodinger Suite 2021-4.
 37 39  0  0  1  0            999 V2000
  -14.4236  -14.8481  -27.7058 C   0  0  0  0  0  0
  -15.0215  -15.6368  -26.7045 C   0  0  0  0  0  0
  -14.5127  -13.4586  -27.6451 C   0  0  0  0  0  0
  -15.7360  -15.0274  -25.6460 C   0  0  0  0  0  0
  -14.8480  -17.0272  -26.7607 N   0  0  0  0  0  0
  -15.2426  -12.8514  -26.6280 C   0  0  0  0  0  0
  -15.8510  -13.6165  -25.6004 C   0  0  0  0  0  0
  -16.3526  -15.9434  -24.6259 C   0  0  0  0  0  0
  -16.1177  -17.2449  -24.8130 N   0  0  0  0  0  0
  -17.0322  -15.5713  -23.6820 O   0  0  0  0  0  0
  -15.3677  -17.7942  -25.8480 C   0  0  0  0  0  0
  -15.2124  -19.2681  -25.9327 C   0  0  0  0  0  0
  -15.4571  -20.0979  -24.8185 C   0  0  0  0  0  0
  -15.2419  -21.4855  -24.9144 C   0  0  0  0  0  0
  -14.7747  -22.0591  -26.1192 C   0  0  0  0  0  0
  -14.5543  -21.2180  -27.2238 C   0  0  0  0  0  0
  -14.7812  -19.8440  -27.1386 C   0  0  0  0  0  0
  -14.4989  -23.5556  -26.2223 C   0  0  0  0  0  0
  -14.2648  -23.9884  -27.5385 O   0  0  0  0  0  0
  -13.7196  -15.4069  -28.7159 F   0  0  0  0  0  0
  -15.3656  -11.5197  -26.7391 F   0  0  0  0  0  0
  -15.7333  -24.3545  -25.8022 C   0  0  0  0  0  0
  -13.2180  -23.9163  -25.4530 C   0  0  0  0  0  0
  -14.0710  -12.8325  -28.4061 H   0  0  0  0  0  0
  -16.4076  -13.1407  -24.8019 H   0  0  0  0  0  0
  -16.5677  -17.8810  -24.1621 H   0  0  0  0  0  0
  -15.8048  -19.6859  -23.8833 H   0  0  0  0  0  0
  -15.4247  -22.1005  -24.0455 H   0  0  0  0  0  0
  -14.1673  -21.5730  -28.1550 H   0  0  0  0  0  0
  -14.5783  -19.2360  -28.0107 H   0  0  0  0  0  0
  -14.1260  -24.9226  -27.5254 H   0  0  0  0  0  0
  -15.9657  -24.2002  -24.7481 H   0  0  0  0  0  0
  -15.6162  -25.4276  -25.9454 H   0  0  0  0  0  0
  -16.6140  -24.0525  -26.3716 H   0  0  0  0  0  0
  -13.3277  -23.7287  -24.3841 H   0  0  0  0  0  0
  -12.9133  -24.9541  -25.5867 H   0  0  0  0  0  0
  -12.3755  -23.3276  -25.8102 H   0  0  0  0  0  0
  1  2  2  0  0  0
  1  3  1  0  0  0
  1 20  1  0  0  0
  2  4  1  0  0  0
  2  5  1  0  0  0
  3  6  2  0  0  0
  3 24  1  0  0  0
  4  7  2  0  0  0
  4  8  1  0  0  0
  5 11  2  0  0  0
  6  7  1  0  0  0
  6 21  1  0  0  0
  7 25  1  0  0  0
  8  9  1  0  0  0
  8 10  2  0  0  0
  9 11  1  0  0  0
  9 26  1  0  0  0
 11 12  1  0  0  0
 12 13  2  0  0  0
 12 17  1  0  0  0
 13 14  1  0  0  0
 13 27  1  0  0  0
 14 15  2  0  0  0
 14 28  1  0  0  0
 15 16  1  0  0  0
 15 18  1  0  0  0
 16 17  2  0  0  0
 16 29  1  0  0  0
 17 30  1  0  0  0
 18 19  1  0  0  0
 18 22  1  0  0  0
 18 23  1  0  0  0
 19 31  1  0  0  0
 22 32  1  0  0  0
 22 33  1  0  0  0
 22 34  1  0  0  0
 23 35  1  0  0  0
 23 36  1  0  0  0
 23 37  1  0  0  0
M  END
> <s_m_entry_id>
452

> <Name>
5k

> <IC50[nM]>
9.2

> <s_m_Source_Path>
/projects/mai/users/kmzp800_harry/pmx_colab/docking_jobs/tnks2

> <s_m_Source_File>
tnks2_lig.sdf

> <i_m_Source_File_Index>
11

> <s_m_job_name>
glide-dock_SP_tnks2_core_const

> <r_i_docking_score>
-10.505060057168

> <r_i_glide_gscore>
-10.505060057168

> <r_i_glide_emodel>
-40.7333840848856

$$$$
8f
                    3D
 Schrodinger Suite 2021-4.
 49 52  0  0  1  0            999 V2000
  -14.4189  -14.8072  -27.6986 C   0  0  0  0  0  0
  -15.0120  -15.6171  -26.7046 C   0  0  0  0  0  0
  -14.4897  -13.4155  -27.6299 C   0  0  0  0  0  0
  -15.7384  -15.0063  -25.6500 C   0  0  0  0  0  0
  -14.8475  -17.0120  -26.7574 N   0  0  0  0  0  0
  -15.2419  -12.8081  -26.6298 C   0  0  0  0  0  0
  -15.8702  -13.5925  -25.6244 C   0  0  0  0  0  0
  -16.3563  -15.9275  -24.6282 C   0  0  0  0  0  0
  -16.1162  -17.2357  -24.8106 N   0  0  0  0  0  0
  -17.0407  -15.5721  -23.6757 O   0  0  0  0  0  0
  -15.3631  -17.7850  -25.8406 C   0  0  0  0  0  0
  -15.1963  -19.2590  -25.9296 C   0  0  0  0  0  0
  -14.7804  -19.8409  -27.1347 C   0  0  0  0  0  0
  -14.5666  -21.2164  -27.2171 C   0  0  0  0  0  0
  -14.7807  -22.0509  -26.1152 C   0  0  0  0  0  0
  -15.2377  -21.4849  -24.9228 C   0  0  0  0  0  0
  -15.4355  -20.0885  -24.8219 C   0  0  0  0  0  0
  -13.7114  -15.3605  -28.8922 C   0  0  0  0  0  0
  -15.3391  -11.4647  -26.7406 F   0  0  0  0  0  0
  -14.5216  -23.5448  -26.2199 C   0  0  1  0  0  0
  -15.5745  -24.2137  -27.1213 C   0  0  0  0  0  0
  -15.2803  -25.7051  -27.3340 C   0  0  0  0  0  0
  -13.9106  -25.9028  -27.8729 N   0  3  1  0  0  0
  -12.8674  -25.3421  -26.9745 C   0  0  0  0  0  0
  -13.0947  -23.8432  -26.7267 C   0  0  0  0  0  0
  -13.6498  -27.3154  -28.2260 C   0  0  0  0  0  0
  -14.0274  -12.8100  -28.3866 H   0  0  0  0  0  0
  -16.4415  -13.1133  -24.8404 H   0  0  0  0  0  0
  -16.5661  -17.8647  -24.1485 H   0  0  0  0  0  0
  -14.6152  -19.2329  -28.0124 H   0  0  0  0  0  0
  -14.2299  -21.5599  -28.1749 H   0  0  0  0  0  0
  -15.3909  -22.0924  -24.0403 H   0  0  0  0  0  0
  -15.7467  -19.6773  -23.8713 H   0  0  0  0  0  0
  -14.0594  -16.3705  -29.0612 H   0  0  0  0  0  0
  -13.9655  -14.7671  -29.7733 H   0  0  0  0  0  0
  -12.6262  -15.2876  -28.7644 H   0  0  0  0  0  0
  -14.6121  -23.9837  -25.2197 H   0  0  0  0  0  0
  -16.5634  -24.0870  -26.6813 H   0  0  0  0  0  0
  -15.6061  -23.7093  -28.0869 H   0  0  0  0  0  0
  -15.4107  -26.2464  -26.3989 H   0  0  0  0  0  0
  -16.0127  -26.1075  -28.0333 H   0  0  0  0  0  0
  -12.8478  -25.8871  -26.0344 H   0  0  0  0  0  0
  -11.8862  -25.4759  -27.4314 H   0  0  0  0  0  0
  -12.8933  -23.3064  -27.6552 H   0  0  0  0  0  0
  -12.3664  -23.4739  -26.0023 H   0  0  0  0  0  0
  -13.7044  -27.9663  -27.3513 H   0  0  0  0  0  0
  -14.3769  -27.6702  -28.9586 H   0  0  0  0  0  0
  -12.6616  -27.4306  -28.6707 H   0  0  0  0  0  0
  -13.8615  -25.3828  -28.7400 H   0  0  0  0  0  0
  1  2  2  0  0  0
  1  3  1  0  0  0
  1 18  1  0  0  0
  2  4  1  0  0  0
  2  5  1  0  0  0
  3  6  2  0  0  0
  3 27  1  0  0  0
  4  7  2  0  0  0
  4  8  1  0  0  0
  5 11  2  0  0  0
  6  7  1  0  0  0
  6 19  1  0  0  0
  7 28  1  0  0  0
  8  9  1  0  0  0
  8 10  2  0  0  0
  9 11  1  0  0  0
  9 29  1  0  0  0
 11 12  1  0  0  0
 12 13  2  0  0  0
 12 17  1  0  0  0
 13 14  1  0  0  0
 13 30  1  0  0  0
 14 15  2  0  0  0
 14 31  1  0  0  0
 15 16  1  0  0  0
 15 20  1  0  0  0
 16 17  2  0  0  0
 16 32  1  0  0  0
 17 33  1  0  0  0
 18 34  1  0  0  0
 18 35  1  0  0  0
 18 36  1  0  0  0
 20 21  1  0  0  0
 20 25  1  0  0  0
 20 37  1  0  0  0
 21 22  1  0  0  0
 21 38  1  0  0  0
 21 39  1  0  0  0
 22 23  1  0  0  0
 22 40  1  0  0  0
 22 41  1  0  0  0
 23 24  1  0  0  0
 23 26  1  0  0  0
 23 49  1  0  0  0
 24 25  1  0  0  0
 24 42  1  0  0  0
 24 43  1  0  0  0
 25 44  1  0  0  0
 25 45  1  0  0  0
 26 46  1  0  0  0
 26 47  1  0  0  0
 26 48  1  0  0  0
M  CHG  1  23   1
M  END
> <s_m_entry_id>
453

> <Name>
8f

> <IC50[nM]>
2.2

> <s_m_Source_Path>
/projects/mai/users/kmzp800_harry/pmx_colab/docking_jobs/tnks2

> <s_m_Source_File>
tnks2_lig.sdf

> <i_m_Source_File_Index>
12

> <s_m_job_name>
glide-dock_SP_tnks2_core_const

> <r_i_docking_score>
-10.5152773095564

> <r_i_glide_gscore>
-10.5152773095564

> <r_i_glide_emodel>
-38.1367763927825

$$$$
5g
                    3D
 Schrodinger Suite 2021-4.
 37 39  0  0  1  0            999 V2000
  -14.4854  -14.6493  -27.5844 C   0  0  0  0  0  0
  -15.0468  -15.5604  -26.6618 C   0  0  0  0  0  0
  -14.5806  -13.2657  -27.4353 C   0  0  0  0  0  0
  -15.7642  -15.0039  -25.5874 C   0  0  0  0  0  0
  -14.8482  -16.9546  -26.7633 N   0  0  0  0  0  0
  -15.2914  -12.7393  -26.3610 C   0  0  0  0  0  0
  -15.9015  -13.6042  -25.4333 C   0  0  0  0  0  0
  -16.3585  -15.9492  -24.5895 C   0  0  0  0  0  0
  -16.1098  -17.2462  -24.8144 N   0  0  0  0  0  0
  -16.9938  -15.5797  -23.6158 O   0  0  0  0  0  0
  -15.3551  -17.7599  -25.8644 C   0  0  0  0  0  0
  -15.1845  -19.2407  -25.9412 C   0  0  0  0  0  0
  -14.7779  -19.8266  -27.1508 C   0  0  0  0  0  0
  -14.5490  -21.2043  -27.2452 C   0  0  0  0  0  0
  -14.7410  -22.0460  -26.1361 C   0  0  0  0  0  0
  -15.1982  -21.4717  -24.9298 C   0  0  0  0  0  0
  -15.4236  -20.0839  -24.8312 C   0  0  0  0  0  0
  -14.4208  -23.5375  -26.2351 C   0  0  0  0  0  0
  -14.1081  -23.9724  -27.5384 O   0  0  0  0  0  0
  -15.6487  -24.3650  -25.8563 C   0  0  0  0  0  0
  -13.1809  -23.8591  -25.3901 C   0  0  0  0  0  0
  -13.6479  -15.1728  -28.9527 Cl  0  0  0  0  0  0
  -14.1173  -12.6156  -28.1667 H   0  0  0  0  0  0
  -15.3729  -11.6662  -26.3109 H   0  0  0  0  0  0
  -16.4484  -13.1951  -24.5941 H   0  0  0  0  0  0
  -16.5502  -17.9016  -24.1761 H   0  0  0  0  0  0
  -14.5968  -19.2244  -28.0318 H   0  0  0  0  0  0
  -14.1897  -21.5727  -28.1858 H   0  0  0  0  0  0
  -15.3436  -22.0896  -24.0556 H   0  0  0  0  0  0
  -15.7500  -19.6775  -23.8845 H   0  0  0  0  0  0
  -13.9292  -24.8986  -27.5124 H   0  0  0  0  0  0
  -15.9495  -24.1751  -24.8260 H   0  0  0  0  0  0
  -15.4747  -25.4352  -25.9400 H   0  0  0  0  0  0
  -16.5011  -24.1282  -26.4924 H   0  0  0  0  0  0
  -13.3625  -23.7012  -24.3240 H   0  0  0  0  0  0
  -12.8475  -24.8872  -25.5384 H   0  0  0  0  0  0
  -12.3469  -23.2248  -25.6799 H   0  0  0  0  0  0
  1  2  2  0  0  0
  1  3  1  0  0  0
  1 22  1  0  0  0
  2  4  1  0  0  0
  2  5  1  0  0  0
  3  6  2  0  0  0
  3 23  1  0  0  0
  4  7  2  0  0  0
  4  8  1  0  0  0
  5 11  2  0  0  0
  6  7  1  0  0  0
  6 24  1  0  0  0
  7 25  1  0  0  0
  8  9  1  0  0  0
  8 10  2  0  0  0
  9 11  1  0  0  0
  9 26  1  0  0  0
 11 12  1  0  0  0
 12 13  2  0  0  0
 12 17  1  0  0  0
 13 14  1  0  0  0
 13 27  1  0  0  0
 14 15  2  0  0  0
 14 28  1  0  0  0
 15 16  1  0  0  0
 15 18  1  0  0  0
 16 17  2  0  0  0
 16 29  1  0  0  0
 17 30  1  0  0  0
 18 19  1  0  0  0
 18 20  1  0  0  0
 18 21  1  0  0  0
 19 31  1  0  0  0
 20 32  1  0  0  0
 20 33  1  0  0  0
 20 34  1  0  0  0
 21 35  1  0  0  0
 21 36  1  0  0  0
 21 37  1  0  0  0
M  END
> <s_m_entry_id>
454

> <Name>
5g

> <IC50[nM]>
12

> <s_m_Source_Path>
/projects/mai/users/kmzp800_harry/pmx_colab/docking_jobs/tnks2

> <s_m_Source_File>
tnks2_lig.sdf

> <i_m_Source_File_Index>
13

> <s_m_job_name>
glide-dock_SP_tnks2_core_const

> <r_i_docking_score>
-10.1620005707975

> <r_i_glide_gscore>
-10.1620005707975

> <r_i_glide_emodel>
-35.6871975134021

$$$$
8b
                    3D
 Schrodinger Suite 2021-4.
 48 51  0  0  1  0            999 V2000
  -14.3968  -14.8384  -27.7139 C   0  0  0  0  0  0
  -15.0110  -15.6280  -26.7139 C   0  0  0  0  0  0
  -14.4486  -13.4503  -27.6514 C   0  0  0  0  0  0
  -15.7278  -15.0093  -25.6609 C   0  0  0  0  0  0
  -14.8482  -17.0132  -26.7527 N   0  0  0  0  0  0
  -15.1772  -12.8317  -26.6438 C   0  0  0  0  0  0
  -15.8258  -13.5919  -25.6332 C   0  0  0  0  0  0
  -16.3453  -15.9275  -24.6261 C   0  0  0  0  0  0
  -16.1293  -17.2298  -24.8105 N   0  0  0  0  0  0
  -16.9933  -15.5526  -23.6631 O   0  0  0  0  0  0
  -15.3657  -17.7724  -25.8380 C   0  0  0  0  0  0
  -15.1771  -19.2321  -25.9252 C   0  0  0  0  0  0
  -14.7441  -19.7976  -27.1408 C   0  0  0  0  0  0
  -14.5415  -21.1759  -27.2472 C   0  0  0  0  0  0
  -14.7637  -21.9947  -26.1393 C   0  0  0  0  0  0
  -15.2263  -21.4476  -24.9277 C   0  0  0  0  0  0
  -15.4405  -20.0671  -24.8223 C   0  0  0  0  0  0
  -15.2482  -11.4928  -26.7385 F   0  0  0  0  0  0
  -14.3739  -23.3402  -26.1728 N   0  0  0  0  0  0
  -13.3609  -23.7853  -25.2213 C   0  0  0  0  0  0
  -12.2739  -24.6204  -25.9227 C   0  0  0  0  0  0
  -12.8493  -25.6510  -26.8198 N   0  3  0  0  0  0
  -13.7618  -25.0576  -27.8313 C   0  0  0  0  0  0
  -14.9027  -24.2659  -27.1640 C   0  0  0  0  0  0
  -11.8095  -26.5124  -27.4245 C   0  0  0  0  0  0
  -13.9715  -12.8415  -28.4063 H   0  0  0  0  0  0
  -16.3869  -13.0959  -24.8535 H   0  0  0  0  0  0
  -16.5771  -17.8596  -24.1568 H   0  0  0  0  0  0
  -14.5333  -19.1845  -28.0059 H   0  0  0  0  0  0
  -14.1460  -21.5726  -28.1639 H   0  0  0  0  0  0
  -15.3856  -22.0784  -24.0654 H   0  0  0  0  0  0
  -15.7775  -19.6649  -23.8783 H   0  0  0  0  0  0
  -12.8898  -22.9296  -24.7338 H   0  0  0  0  0  0
  -13.8358  -24.3625  -24.4304 H   0  0  0  0  0  0
  -11.6308  -25.0848  -25.1735 H   0  0  0  0  0  0
  -11.6488  -23.9699  -26.5328 H   0  0  0  0  0  0
  -14.1803  -25.8395  -28.4658 H   0  0  0  0  0  0
  -13.1838  -24.3970  -28.4784 H   0  0  0  0  0  0
  -15.5829  -24.9505  -26.6565 H   0  0  0  0  0  0
  -15.4955  -23.7423  -27.9146 H   0  0  0  0  0  0
  -11.1464  -25.9352  -28.0710 H   0  0  0  0  0  0
  -11.2025  -26.9844  -26.6510 H   0  0  0  0  0  0
  -12.2626  -27.3054  -28.0205 H   0  0  0  0  0  0
  -13.4177  -26.2509  -26.2409 H   0  0  0  0  0  0
  -13.6483  -15.4241  -28.8767 C   0  0  0  0  0  0
  -14.0880  -16.3759  -29.1380 H   0  0  0  0  0  0
  -13.7219  -14.7743  -29.7500 H   0  0  0  0  0  0
  -12.5940  -15.5719  -28.6683 H   0  0  0  0  0  0
  1  2  2  0  0  0
  1  3  1  0  0  0
  1 45  1  0  0  0
  2  4  1  0  0  0
  2  5  1  0  0  0
  3  6  2  0  0  0
  3 26  1  0  0  0
  4  7  2  0  0  0
  4  8  1  0  0  0
  5 11  2  0  0  0
  6  7  1  0  0  0
  6 18  1  0  0  0
  7 27  1  0  0  0
  8  9  1  0  0  0
  8 10  2  0  0  0
  9 11  1  0  0  0
  9 28  1  0  0  0
 11 12  1  0  0  0
 12 13  2  0  0  0
 12 17  1  0  0  0
 13 14  1  0  0  0
 13 29  1  0  0  0
 14 15  2  0  0  0
 14 30  1  0  0  0
 15 16  1  0  0  0
 15 19  1  0  0  0
 16 17  2  0  0  0
 16 31  1  0  0  0
 17 32  1  0  0  0
 19 20  1  0  0  0
 19 24  1  0  0  0
 20 21  1  0  0  0
 20 33  1  0  0  0
 20 34  1  0  0  0
 21 22  1  0  0  0
 21 35  1  0  0  0
 21 36  1  0  0  0
 22 23  1  0  0  0
 22 25  1  0  0  0
 22 44  1  0  0  0
 23 24  1  0  0  0
 23 37  1  0  0  0
 23 38  1  0  0  0
 24 39  1  0  0  0
 24 40  1  0  0  0
 25 41  1  0  0  0
 25 42  1  0  0  0
 25 43  1  0  0  0
 45 46  1  0  0  0
 45 47  1  0  0  0
 45 48  1  0  0  0
M  CHG  1  22   1
M  END
> <s_m_entry_id>
455

> <Name>
8b

> <IC50[nM]>
1.8

> <s_m_Source_Path>
/projects/mai/users/kmzp800_harry/pmx_colab/docking_jobs/tnks2

> <s_m_Source_File>
tnks2_lig.sdf

> <i_m_Source_File_Index>
14

> <s_m_job_name>
glide-dock_SP_tnks2_core_const

> <r_i_docking_score>
-10.5757412086971

> <r_i_glide_gscore>
-10.5757412086971

> <r_i_glide_emodel>
-38.7991401362397

$$$$
8e
                    3D
 Schrodinger Suite 2021-4.
 46 49  0  0  1  0            999 V2000
  -14.4103  -14.8751  -27.7212 C   0  0  0  0  0  0
  -15.0256  -15.6330  -26.7103 C   0  0  0  0  0  0
  -14.4843  -13.4859  -27.6908 C   0  0  0  0  0  0
  -15.7528  -15.0154  -25.6704 C   0  0  0  0  0  0
  -14.8371  -17.0224  -26.7476 N   0  0  0  0  0  0
  -15.2289  -12.8553  -26.6872 C   0  0  0  0  0  0
  -15.8688  -13.6035  -25.6623 C   0  0  0  0  0  0
  -16.3511  -15.9367  -24.6327 C   0  0  0  0  0  0
  -16.1122  -17.2379  -24.8119 N   0  0  0  0  0  0
  -17.0193  -15.5727  -23.6809 O   0  0  0  0  0  0
  -15.3572  -17.7882  -25.8399 C   0  0  0  0  0  0
  -15.1945  -19.2588  -25.9257 C   0  0  0  0  0  0
  -14.7798  -19.8401  -27.1330 C   0  0  0  0  0  0
  -14.5659  -21.2146  -27.2153 C   0  0  0  0  0  0
  -14.7821  -22.0550  -26.1079 C   0  0  0  0  0  0
  -15.2397  -21.4813  -24.9038 C   0  0  0  0  0  0
  -15.4420  -20.0888  -24.8167 C   0  0  0  0  0  0
  -13.6926  -15.4751  -28.6979 F   0  0  0  0  0  0
  -15.2600  -11.5133  -26.7383 F   0  0  0  0  0  0
  -14.5201  -23.5502  -26.2154 C   0  0  1  0  0  0
  -15.5222  -24.2273  -27.1669 C   0  0  0  0  0  0
  -15.2199  -25.7228  -27.3438 C   0  0  0  0  0  0
  -13.8256  -25.9366  -27.8112 N   0  3  1  0  0  0
  -12.8244  -25.3460  -26.8887 C   0  0  0  0  0  0
  -13.0758  -23.8464  -26.6712 C   0  0  0  0  0  0
  -13.5445  -27.3597  -28.1057 C   0  0  0  0  0  0
  -13.9875  -12.8957  -28.4480 H   0  0  0  0  0  0
  -16.4224  -13.1003  -24.8818 H   0  0  0  0  0  0
  -16.5551  -17.8672  -24.1547 H   0  0  0  0  0  0
  -14.5827  -19.2364  -28.0068 H   0  0  0  0  0  0
  -14.2087  -21.5735  -28.1601 H   0  0  0  0  0  0
  -15.4218  -22.0997  -24.0372 H   0  0  0  0  0  0
  -15.7732  -19.6770  -23.8753 H   0  0  0  0  0  0
  -14.6526  -23.9749  -25.2202 H   0  0  0  0  0  0
  -15.4952  -23.7448  -28.1421 H   0  0  0  0  0  0
  -16.5373  -24.0932  -26.7891 H   0  0  0  0  0  0
  -15.9149  -26.1455  -28.0714 H   0  0  0  0  0  0
  -15.3907  -26.2516  -26.4062 H   0  0  0  0  0  0
  -11.8211  -25.4873  -27.2952 H   0  0  0  0  0  0
  -12.8474  -25.8743  -25.9395 H   0  0  0  0  0  0
  -12.3743  -23.4616  -25.9312 H   0  0  0  0  0  0
  -12.8509  -23.3262  -27.6016 H   0  0  0  0  0  0
  -13.6205  -27.9690  -27.2034 H   0  0  0  0  0  0
  -14.2477  -27.7507  -28.8419 H   0  0  0  0  0  0
  -12.5393  -27.4799  -28.5136 H   0  0  0  0  0  0
  -13.7379  -25.4404  -28.6860 H   0  0  0  0  0  0
  1  2  2  0  0  0
  1  3  1  0  0  0
  1 18  1  0  0  0
  2  4  1  0  0  0
  2  5  1  0  0  0
  3  6  2  0  0  0
  3 27  1  0  0  0
  4  7  2  0  0  0
  4  8  1  0  0  0
  5 11  2  0  0  0
  6  7  1  0  0  0
  6 19  1  0  0  0
  7 28  1  0  0  0
  8  9  1  0  0  0
  8 10  2  0  0  0
  9 11  1  0  0  0
  9 29  1  0  0  0
 11 12  1  0  0  0
 12 13  2  0  0  0
 12 17  1  0  0  0
 13 14  1  0  0  0
 13 30  1  0  0  0
 14 15  2  0  0  0
 14 31  1  0  0  0
 15 16  1  0  0  0
 15 20  1  0  0  0
 16 17  2  0  0  0
 16 32  1  0  0  0
 17 33  1  0  0  0
 20 21  1  0  0  0
 20 25  1  0  0  0
 20 34  1  0  0  0
 21 22  1  0  0  0
 21 35  1  0  0  0
 21 36  1  0  0  0
 22 23  1  0  0  0
 22 37  1  0  0  0
 22 38  1  0  0  0
 23 24  1  0  0  0
 23 26  1  0  0  0
 23 46  1  0  0  0
 24 25  1  0  0  0
 24 39  1  0  0  0
 24 40  1  0  0  0
 25 41  1  0  0  0
 25 42  1  0  0  0
 26 43  1  0  0  0
 26 44  1  0  0  0
 26 45  1  0  0  0
M  CHG  1  23   1
M  END
> <s_m_entry_id>
456

> <Name>
8e

> <IC50[nM]>
31

> <s_m_Source_Path>
/projects/mai/users/kmzp800_harry/pmx_colab/docking_jobs/tnks2

> <s_m_Source_File>
tnks2_lig.sdf

> <i_m_Source_File_Index>
15

> <s_m_job_name>
glide-dock_SP_tnks2_core_const

> <r_i_docking_score>
-10.6811770731562

> <r_i_glide_gscore>
-10.6811770731562

> <r_i_glide_emodel>
-47.3731441336266

$$$$
7
                    3D
 Schrodinger Suite 2021-4.
 36 38  0  0  1  0            999 V2000
  -15.0867  -19.4271  -25.7482 C   0  0  0  0  0  0
  -14.8485  -20.0117  -26.9413 N   0  0  0  0  0  0
  -15.0697  -20.1404  -24.5319 C   0  0  0  0  0  0
  -15.3134  -17.9562  -25.7570 C   0  0  0  0  0  0
  -14.5777  -21.3238  -26.9663 C   0  0  0  0  0  0
  -14.7517  -21.5104  -24.5679 C   0  0  0  0  0  0
  -14.4804  -22.1186  -25.8134 C   0  0  0  0  0  0
  -16.0473  -17.3537  -24.7280 N   0  0  0  0  0  0
  -16.2374  -16.0349  -24.5926 C   0  0  0  0  0  0
  -14.8474  -17.2396  -26.7395 N   0  0  0  0  0  0
  -14.9885  -15.8482  -26.7386 C   0  0  0  0  0  0
  -15.6499  -15.1823  -25.6831 C   0  0  0  0  0  0
  -15.7255  -13.7701  -25.6772 C   0  0  0  0  0  0
  -15.1137  -13.0374  -26.7204 C   0  0  0  0  0  0
  -14.4495  -13.7032  -27.7653 C   0  0  0  0  0  0
  -14.4056  -15.1064  -27.7834 C   0  0  0  0  0  0
  -16.8495  -15.5702  -23.6404 O   0  0  0  0  0  0
  -14.1477  -23.5951  -25.9033 C   0  0  0  0  0  0
  -13.3277  -23.9680  -24.8138 O   0  0  0  0  0  0
  -15.1677  -11.6878  -26.7387 F   0  0  0  0  0  0
  -13.3289  -24.0121  -27.1373 C   0  0  0  0  0  0
  -15.4816  -24.3727  -25.9385 C   0  0  0  0  0  0
  -15.2743  -19.6581  -23.5885 H   0  0  0  0  0  0
  -14.4059  -21.7402  -27.9392 H   0  0  0  0  0  0
  -14.7145  -22.0793  -23.6502 H   0  0  0  0  0  0
  -16.4907  -17.9513  -24.0400 H   0  0  0  0  0  0
  -16.2301  -13.2488  -24.8745 H   0  0  0  0  0  0
  -13.9886  -13.1319  -28.5591 H   0  0  0  0  0  0
  -13.8983  -15.6130  -28.5901 H   0  0  0  0  0  0
  -13.9413  -23.9736  -28.0329 H   0  0  0  0  0  0
  -12.9866  -25.0450  -27.0512 H   0  0  0  0  0  0
  -12.4483  -23.3899  -27.2825 H   0  0  0  0  0  0
  -16.1226  -24.0249  -26.7496 H   0  0  0  0  0  0
  -15.3284  -25.4383  -26.1063 H   0  0  0  0  0  0
  -16.0479  -24.2555  -25.0120 H   0  0  0  0  0  0
  -12.4746  -23.5731  -24.9255 H   0  0  0  0  0  0
  1  2  2  0  0  0
  1  3  1  0  0  0
  1  4  1  0  0  0
  2  5  1  0  0  0
  3  6  2  0  0  0
  3 23  1  0  0  0
  4  8  1  0  0  0
  4 10  2  0  0  0
  5  7  2  0  0  0
  5 24  1  0  0  0
  6  7  1  0  0  0
  6 25  1  0  0  0
  7 18  1  0  0  0
  8  9  1  0  0  0
  8 26  1  0  0  0
  9 12  1  0  0  0
  9 17  2  0  0  0
 10 11  1  0  0  0
 11 12  2  0  0  0
 11 16  1  0  0  0
 12 13  1  0  0  0
 13 14  2  0  0  0
 13 27  1  0  0  0
 14 15  1  0  0  0
 14 20  1  0  0  0
 15 16  2  0  0  0
 15 28  1  0  0  0
 16 29  1  0  0  0
 18 19  1  0  0  0
 18 21  1  0  0  0
 18 22  1  0  0  0
 19 36  1  0  0  0
 21 30  1  0  0  0
 21 31  1  0  0  0
 21 32  1  0  0  0
 22 33  1  0  0  0
 22 34  1  0  0  0
 22 35  1  0  0  0
M  END
> <s_m_entry_id>
457

> <Name>
7

> <IC50[nM]>
700

> <s_m_Source_Path>
/projects/mai/users/kmzp800_harry/pmx_colab/docking_jobs/tnks2

> <s_m_Source_File>
tnks2_lig.sdf

> <i_m_Source_File_Index>
16

> <s_m_job_name>
glide-dock_SP_tnks2_core_const

> <r_i_docking_score>
-10.5853723243358

> <r_i_glide_gscore>
-10.5853723243358

> <r_i_glide_emodel>
-65.7634371043015

$$$$
5c
                    3D
 Schrodinger Suite 2021-4.
 37 39  0  0  1  0            999 V2000
  -14.4125  -14.9044  -27.7603 C   0  0  0  0  0  0
  -15.0069  -15.6317  -26.7076 C   0  0  0  0  0  0
  -14.4482  -13.5071  -27.7671 C   0  0  0  0  0  0
  -15.7160  -15.0195  -25.6698 C   0  0  0  0  0  0
  -14.8367  -17.0231  -26.7509 N   0  0  0  0  0  0
  -15.1100  -12.8593  -26.7200 C   0  0  0  0  0  0
  -15.7269  -13.6171  -25.7047 C   0  0  0  0  0  0
  -16.3526  -15.9320  -24.6382 C   0  0  0  0  0  0
  -16.1200  -17.2376  -24.8123 N   0  0  0  0  0  0
  -17.0382  -15.5728  -23.6936 O   0  0  0  0  0  0
  -15.3634  -17.7915  -25.8427 C   0  0  0  0  0  0
  -15.2034  -19.2680  -25.9321 C   0  0  0  0  0  0
  -15.4402  -20.1120  -24.8277 C   0  0  0  0  0  0
  -15.2074  -21.4981  -24.9357 C   0  0  0  0  0  0
  -14.7319  -22.0593  -26.1446 C   0  0  0  0  0  0
  -14.5373  -21.2095  -27.2456 C   0  0  0  0  0  0
  -14.7810  -19.8384  -27.1439 C   0  0  0  0  0  0
  -14.4023  -23.5458  -26.2467 C   0  0  0  0  0  0
  -14.0145  -23.9704  -27.5383 O   0  0  0  0  0  0
  -15.6496  -24.3727  -25.9384 C   0  0  0  0  0  0
  -13.1930  -23.8675  -25.3604 C   0  0  0  0  0  0
  -16.4482  -12.7728  -24.4812 Cl  0  0  0  0  0  0
  -13.8914  -15.4261  -28.5513 H   0  0  0  0  0  0
  -13.9725  -12.9386  -28.5533 H   0  0  0  0  0  0
  -15.1404  -11.7784  -26.6952 H   0  0  0  0  0  0
  -16.5732  -17.8665  -24.1611 H   0  0  0  0  0  0
  -15.7698  -19.7116  -23.8799 H   0  0  0  0  0  0
  -15.3673  -22.1254  -24.0709 H   0  0  0  0  0  0
  -14.1650  -21.5729  -28.1848 H   0  0  0  0  0  0
  -14.5881  -19.2259  -28.0127 H   0  0  0  0  0  0
  -13.8171  -24.8938  -27.5041 H   0  0  0  0  0  0
  -15.9677  -24.2538  -24.9024 H   0  0  0  0  0  0
  -15.4895  -25.4363  -26.1078 H   0  0  0  0  0  0
  -16.4835  -24.0760  -26.5752 H   0  0  0  0  0  0
  -13.4274  -23.7656  -24.3009 H   0  0  0  0  0  0
  -12.8231  -24.8772  -25.5385 H   0  0  0  0  0  0
  -12.3694  -23.1883  -25.5778 H   0  0  0  0  0  0
  1  2  2  0  0  0
  1  3  1  0  0  0
  1 23  1  0  0  0
  2  4  1  0  0  0
  2  5  1  0  0  0
  3  6  2  0  0  0
  3 24  1  0  0  0
  4  7  2  0  0  0
  4  8  1  0  0  0
  5 11  2  0  0  0
  6  7  1  0  0  0
  6 25  1  0  0  0
  7 22  1  0  0  0
  8  9  1  0  0  0
  8 10  2  0  0  0
  9 11  1  0  0  0
  9 26  1  0  0  0
 11 12  1  0  0  0
 12 13  2  0  0  0
 12 17  1  0  0  0
 13 14  1  0  0  0
 13 27  1  0  0  0
 14 15  2  0  0  0
 14 28  1  0  0  0
 15 16  1  0  0  0
 15 18  1  0  0  0
 16 17  2  0  0  0
 16 29  1  0  0  0
 17 30  1  0  0  0
 18 19  1  0  0  0
 18 20  1  0  0  0
 18 21  1  0  0  0
 19 31  1  0  0  0
 20 32  1  0  0  0
 20 33  1  0  0  0
 20 34  1  0  0  0
 21 35  1  0  0  0
 21 36  1  0  0  0
 21 37  1  0  0  0
M  END
> <s_m_entry_id>
458

> <Name>
5c

> <IC50[nM]>
50

> <s_m_Source_Path>
/projects/mai/users/kmzp800_harry/pmx_colab/docking_jobs/tnks2

> <s_m_Source_File>
tnks2_lig.sdf

> <i_m_Source_File_Index>
17

> <s_m_job_name>
glide-dock_SP_tnks2_core_const

> <r_i_docking_score>
-9.34300283484444

> <r_i_glide_gscore>
-9.34300283484444

> <r_i_glide_emodel>
-47.4245591038903

$$$$
8a
                    3D
 Schrodinger Suite 2021-4.
 45 48  0  0  1  0            999 V2000
  -14.3986  -14.8875  -27.7265 C   0  0  0  0  0  0
  -15.0145  -15.6323  -26.7101 C   0  0  0  0  0  0
  -14.4530  -13.4938  -27.6942 C   0  0  0  0  0  0
  -15.7438  -15.0120  -25.6754 C   0  0  0  0  0  0
  -14.8479  -17.0181  -26.7576 N   0  0  0  0  0  0
  -15.1823  -12.8586  -26.6807 C   0  0  0  0  0  0
  -15.8386  -13.6002  -25.6635 C   0  0  0  0  0  0
  -16.3786  -15.9282  -24.6567 C   0  0  0  0  0  0
  -16.1150  -17.2280  -24.8108 N   0  0  0  0  0  0
  -17.1010  -15.5725  -23.7405 O   0  0  0  0  0  0
  -15.3646  -17.7802  -25.8433 C   0  0  0  0  0  0
  -15.2061  -19.2510  -25.9322 C   0  0  0  0  0  0
  -14.7790  -19.8297  -27.1433 C   0  0  0  0  0  0
  -14.5645  -21.1990  -27.2409 C   0  0  0  0  0  0
  -14.8080  -22.0198  -26.1332 C   0  0  0  0  0  0
  -15.2629  -21.4596  -24.9218 C   0  0  0  0  0  0
  -15.4553  -20.0737  -24.8151 C   0  0  0  0  0  0
  -15.2481  -11.5183  -26.7385 F   0  0  0  0  0  0
  -14.4055  -23.3625  -26.1510 N   0  0  0  0  0  0
  -14.8482  -24.2747  -27.1967 C   0  0  0  0  0  0
  -13.6632  -25.0457  -27.8062 C   0  0  0  0  0  0
  -12.7974  -25.6299  -26.7513 N   0  3  0  0  0  0
  -12.2798  -24.5897  -25.8322 C   0  0  0  0  0  0
  -13.4114  -23.7851  -25.1692 C   0  0  0  0  0  0
  -11.7180  -26.4785  -27.3026 C   0  0  0  0  0  0
  -13.9642  -12.9060  -28.4577 H   0  0  0  0  0  0
  -16.4004  -13.0928  -24.8916 H   0  0  0  0  0  0
  -16.5692  -17.8560  -24.1602 H   0  0  0  0  0  0
  -14.5634  -19.2187  -28.0084 H   0  0  0  0  0  0
  -14.1525  -21.5726  -28.1583 H   0  0  0  0  0  0
  -15.4205  -22.0852  -24.0553 H   0  0  0  0  0  0
  -15.7731  -19.6610  -23.8688 H   0  0  0  0  0  0
  -15.3746  -23.7309  -27.9794 H   0  0  0  0  0  0
  -15.5636  -24.9718  -26.7583 H   0  0  0  0  0  0
  -14.0381  -25.8314  -28.4630 H   0  0  0  0  0  0
  -13.0627  -24.3749  -28.4223 H   0  0  0  0  0  0
  -11.6487  -25.0386  -25.0615 H   0  0  0  0  0  0
  -11.6500  -23.9226  -26.4189 H   0  0  0  0  0  0
  -13.8962  -24.3683  -24.3905 H   0  0  0  0  0  0
  -12.9762  -22.9194  -24.6670 H   0  0  0  0  0  0
  -11.0292  -25.8932  -27.9137 H   0  0  0  0  0  0
  -11.1474  -26.9460  -26.4987 H   0  0  0  0  0  0
  -12.1306  -27.2759  -27.9219 H   0  0  0  0  0  0
  -13.3860  -26.2355  -26.1983 H   0  0  0  0  0  0
  -13.8474  -15.3849  -28.5113 H   0  0  0  0  0  0
  1  2  2  0  0  0
  1  3  1  0  0  0
  1 45  1  0  0  0
  2  4  1  0  0  0
  2  5  1  0  0  0
  3  6  2  0  0  0
  3 26  1  0  0  0
  4  7  2  0  0  0
  4  8  1  0  0  0
  5 11  2  0  0  0
  6  7  1  0  0  0
  6 18  1  0  0  0
  7 27  1  0  0  0
  8  9  1  0  0  0
  8 10  2  0  0  0
  9 11  1  0  0  0
  9 28  1  0  0  0
 11 12  1  0  0  0
 12 13  2  0  0  0
 12 17  1  0  0  0
 13 14  1  0  0  0
 13 29  1  0  0  0
 14 15  2  0  0  0
 14 30  1  0  0  0
 15 16  1  0  0  0
 15 19  1  0  0  0
 16 17  2  0  0  0
 16 31  1  0  0  0
 17 32  1  0  0  0
 19 20  1  0  0  0
 19 24  1  0  0  0
 20 21  1  0  0  0
 20 33  1  0  0  0
 20 34  1  0  0  0
 21 22  1  0  0  0
 21 35  1  0  0  0
 21 36  1  0  0  0
 22 23  1  0  0  0
 22 25  1  0  0  0
 22 44  1  0  0  0
 23 24  1  0  0  0
 23 37  1  0  0  0
 23 38  1  0  0  0
 24 39  1  0  0  0
 24 40  1  0  0  0
 25 41  1  0  0  0
 25 42  1  0  0  0
 25 43  1  0  0  0
M  CHG  1  22   1
M  END
> <s_m_entry_id>
459

> <Name>
8a

> <IC50[nM]>
12

> <s_m_Source_Path>
/projects/mai/users/kmzp800_harry/pmx_colab/docking_jobs/tnks2

> <s_m_Source_File>
tnks2_lig.sdf

> <i_m_Source_File_Index>
18

> <s_m_job_name>
glide-dock_SP_tnks2_core_const

> <r_i_docking_score>
-10.7527402741762

> <r_i_glide_gscore>
-10.7527402741762

> <r_i_glide_emodel>
-49.4781159144963

$$$$
5m
                    3D
 Schrodinger Suite 2021-4.
 40 42  0  0  1  0            999 V2000
  -15.2341  -19.2713  -25.9293 C   0  0  0  0  0  0
  -14.7811  -19.8424  -27.1377 C   0  0  0  0  0  0
  -15.4758  -20.1054  -24.8194 C   0  0  0  0  0  0
  -14.5677  -21.2195  -27.2214 C   0  0  0  0  0  0
  -15.2513  -21.4925  -24.9135 C   0  0  0  0  0  0
  -14.8482  -17.0224  -26.7414 N   0  0  0  0  0  0
  -14.7933  -22.0678  -26.1203 C   0  0  0  0  0  0
  -14.5019  -23.5661  -26.2078 C   0  0  0  0  0  0
  -15.0248  -15.6332  -26.7066 C   0  0  0  0  0  0
  -15.7350  -15.0155  -25.6492 C   0  0  0  0  0  0
  -15.2008  -12.8388  -26.6454 C   0  0  0  0  0  0
  -14.4921  -13.4603  -27.6634 C   0  0  0  0  0  0
  -15.8366  -13.5979  -25.6240 C   0  0  0  0  0  0
  -14.4462  -14.8470  -27.7236 C   0  0  0  0  0  0
  -16.3456  -15.9367  -24.6148 C   0  0  0  0  0  0
  -16.1307  -17.2391  -24.8112 N   0  0  0  0  0  0
  -15.3751  -17.7919  -25.8363 C   0  0  0  0  0  0
  -16.9965  -15.5707  -23.6483 O   0  0  0  0  0  0
  -15.7405  -24.3736  -25.7810 C   0  0  0  0  0  0
  -14.2247  -23.9946  -27.5276 O   0  0  0  0  0  0
  -13.2366  -23.8780  -25.3855 C   0  0  0  0  0  0
  -13.6946  -15.4366  -28.8838 C   0  0  0  0  0  0
  -15.2487  -11.4996  -26.7385 F   0  0  0  0  0  0
  -14.5632  -19.2324  -28.0029 H   0  0  0  0  0  0
  -15.8062  -19.6980  -23.8754 H   0  0  0  0  0  0
  -14.1759  -21.5729  -28.1546 H   0  0  0  0  0  0
  -15.4191  -22.1090  -24.0432 H   0  0  0  0  0  0
  -14.0230  -12.8532  -28.4258 H   0  0  0  0  0  0
  -16.3892  -13.1016  -24.8386 H   0  0  0  0  0  0
  -16.5819  -17.8688  -24.1597 H   0  0  0  0  0  0
  -15.9732  -24.2336  -24.7268 H   0  0  0  0  0  0
  -15.6330  -25.4439  -25.9433 H   0  0  0  0  0  0
  -16.6166  -24.0610  -26.3501 H   0  0  0  0  0  0
  -14.0318  -24.9193  -27.5086 H   0  0  0  0  0  0
  -13.4090  -23.7441  -24.3168 H   0  0  0  0  0  0
  -12.8483  -24.8847  -25.5425 H   0  0  0  0  0  0
  -12.4321  -23.1984  -25.6658 H   0  0  0  0  0  0
  -13.7693  -14.7898  -29.7592 H   0  0  0  0  0  0
  -12.6393  -15.5727  -28.6687 H   0  0  0  0  0  0
  -14.1244  -16.3967  -29.1385 H   0  0  0  0  0  0
  1  2  2  0  0  0
  1  3  1  0  0  0
  1 17  1  0  0  0
  2  4  1  0  0  0
  2 24  1  0  0  0
  3  5  2  0  0  0
  3 25  1  0  0  0
  4  7  2  0  0  0
  4 26  1  0  0  0
  5  7  1  0  0  0
  5 27  1  0  0  0
  6  9  1  0  0  0
  6 17  2  0  0  0
  7  8  1  0  0  0
  8 19  1  0  0  0
  8 20  1  0  0  0
  8 21  1  0  0  0
  9 10  2  0  0  0
  9 14  1  0  0  0
 10 13  1  0  0  0
 10 15  1  0  0  0
 11 12  1  0  0  0
 11 13  2  0  0  0
 11 23  1  0  0  0
 12 14  2  0  0  0
 12 28  1  0  0  0
 13 29  1  0  0  0
 14 22  1  0  0  0
 15 16  1  0  0  0
 15 18  2  0  0  0
 16 17  1  0  0  0
 16 30  1  0  0  0
 19 31  1  0  0  0
 19 32  1  0  0  0
 19 33  1  0  0  0
 20 34  1  0  0  0
 21 35  1  0  0  0
 21 36  1  0  0  0
 21 37  1  0  0  0
 22 38  1  0  0  0
 22 39  1  0  0  0
 22 40  1  0  0  0
M  END
> <s_m_entry_id>
460

> <Name>
5m

> <IC50[nM]>
0.5

> <s_m_Source_Path>
/projects/mai/users/kmzp800_harry/pmx_colab/docking_jobs/tnks2

> <s_m_Source_File>
tnks2_lig.sdf

> <i_m_Source_File_Index>
19

> <s_m_job_name>
glide-dock_SP_tnks2_core_const

> <r_i_docking_score>
-10.4958092367661

> <r_i_glide_gscore>
-10.4958092367661

> <r_i_glide_emodel>
-37.5137076026867

$$$$
5p
                    3D
 Schrodinger Suite 2021-4.
 47 49  0  0  1  0            999 V2000
  -15.2130  -19.2460  -25.9379 C   0  0  0  0  0  0
  -15.4612  -20.0605  -24.8207 C   0  0  0  0  0  0
  -14.7789  -19.8340  -27.1376 C   0  0  0  0  0  0
  -15.3674  -17.7783  -25.8492 C   0  0  0  0  0  0
  -15.2288  -21.4422  -24.9016 C   0  0  0  0  0  0
  -14.5225  -21.2037  -27.2029 C   0  0  0  0  0  0
  -14.7454  -22.0300  -26.0878 C   0  0  0  0  0  0
  -16.1143  -17.2322  -24.8112 N   0  0  0  0  0  0
  -16.3723  -15.9298  -24.6551 C   0  0  0  0  0  0
  -14.8467  -17.0123  -26.7588 N   0  0  0  0  0  0
  -14.9912  -15.6214  -26.6993 C   0  0  0  0  0  0
  -15.7283  -15.0069  -25.6669 C   0  0  0  0  0  0
  -15.8269  -13.5946  -25.6534 C   0  0  0  0  0  0
  -15.1757  -12.8515  -26.6746 C   0  0  0  0  0  0
  -14.4483  -13.4850  -27.6910 C   0  0  0  0  0  0
  -14.3822  -14.8782  -27.7200 C   0  0  0  0  0  0
  -17.0952  -15.5720  -23.7391 O   0  0  0  0  0  0
  -14.5335  -23.5385  -26.1775 C   0  0  0  0  0  0
  -14.6139  -23.9271  -27.5437 O   0  0  0  0  0  0
  -15.2481  -11.5113  -26.7386 F   0  0  0  0  0  0
  -14.7455  -25.2948  -27.9524 C   0  0  0  0  0  0
  -16.2123  -25.7369  -28.2178 C   0  0  0  0  0  0
  -16.8386  -24.9949  -29.2600 O   0  0  0  0  0  0
  -16.7639  -25.6371  -30.5232 C   0  0  0  0  0  0
  -15.6881  -24.2286  -25.4521 C   0  0  0  0  0  0
  -13.1381  -23.8875  -25.6235 C   0  0  0  0  0  0
  -15.7957  -19.6411  -23.8821 H   0  0  0  0  0  0
  -14.5781  -19.2347  -28.0149 H   0  0  0  0  0  0
  -15.3952  -22.0177  -24.0042 H   0  0  0  0  0  0
  -14.1378  -21.5734  -28.1336 H   0  0  0  0  0  0
  -16.5706  -17.8622  -24.1649 H   0  0  0  0  0  0
  -16.3906  -13.0855  -24.8840 H   0  0  0  0  0  0
  -13.9664  -12.8961  -28.4596 H   0  0  0  0  0  0
  -13.8349  -15.3747  -28.5086 H   0  0  0  0  0  0
  -14.2694  -25.9611  -27.2334 H   0  0  0  0  0  0
  -14.1746  -25.4084  -28.8729 H   0  0  0  0  0  0
  -16.8430  -25.6281  -27.3408 H   0  0  0  0  0  0
  -16.2333  -26.8051  -28.4400 H   0  0  0  0  0  0
  -17.1731  -24.9833  -31.2922 H   0  0  0  0  0  0
  -17.3483  -26.5586  -30.5211 H   0  0  0  0  0  0
  -15.7355  -25.8813  -30.7953 H   0  0  0  0  0  0
  -15.7416  -24.0154  -24.3869 H   0  0  0  0  0  0
  -16.6022  -23.8952  -25.9389 H   0  0  0  0  0  0
  -15.6612  -25.3019  -25.5407 H   0  0  0  0  0  0
  -13.0669  -23.6609  -24.5595 H   0  0  0  0  0  0
  -12.8571  -24.9300  -25.7619 H   0  0  0  0  0  0
  -12.3775  -23.2940  -26.1301 H   0  0  0  0  0  0
  1  2  2  0  0  0
  1  3  1  0  0  0
  1  4  1  0  0  0
  2  5  1  0  0  0
  2 27  1  0  0  0
  3  6  2  0  0  0
  3 28  1  0  0  0
  4  8  1  0  0  0
  4 10  2  0  0  0
  5  7  2  0  0  0
  5 29  1  0  0  0
  6  7  1  0  0  0
  6 30  1  0  0  0
  7 18  1  0  0  0
  8  9  1  0  0  0
  8 31  1  0  0  0
  9 12  1  0  0  0
  9 17  2  0  0  0
 10 11  1  0  0  0
 11 12  2  0  0  0
 11 16  1  0  0  0
 12 13  1  0  0  0
 13 14  2  0  0  0
 13 32  1  0  0  0
 14 15  1  0  0  0
 14 20  1  0  0  0
 15 16  2  0  0  0
 15 33  1  0  0  0
 16 34  1  0  0  0
 18 19  1  0  0  0
 18 25  1  0  0  0
 18 26  1  0  0  0
 19 21  1  0  0  0
 21 22  1  0  0  0
 21 35  1  0  0  0
 21 36  1  0  0  0
 22 23  1  0  0  0
 22 37  1  0  0  0
 22 38  1  0  0  0
 23 24  1  0  0  0
 24 39  1  0  0  0
 24 40  1  0  0  0
 24 41  1  0  0  0
 25 42  1  0  0  0
 25 43  1  0  0  0
 25 44  1  0  0  0
 26 45  1  0  0  0
 26 46  1  0  0  0
 26 47  1  0  0  0
M  END
> <s_m_entry_id>
461

> <Name>
5p

> <IC50[nM]>
20

> <s_m_Source_Path>
/projects/mai/users/kmzp800_harry/pmx_colab/docking_jobs/tnks2

> <s_m_Source_File>
tnks2_lig.sdf

> <i_m_Source_File_Index>
20

> <s_m_job_name>
glide-dock_SP_tnks2_core_const

> <r_i_docking_score>
-10.7020581545996

> <r_i_glide_gscore>
-10.7020581545996

> <r_i_glide_emodel>
-52.440431804325

$$$$
5i
                    3D
 Schrodinger Suite 2021-4.
 40 42  0  0  1  0            999 V2000
  -14.4551  -14.6846  -27.6075 C   0  0  0  0  0  0
  -15.0354  -15.5600  -26.6585 C   0  0  0  0  0  0
  -14.5761  -13.2899  -27.4809 C   0  0  0  0  0  0
  -15.7619  -15.0021  -25.5872 C   0  0  0  0  0  0
  -14.8483  -16.9603  -26.7472 N   0  0  0  0  0  0
  -15.2917  -12.7523  -26.4040 C   0  0  0  0  0  0
  -15.9027  -13.6008  -25.4609 C   0  0  0  0  0  0
  -16.3557  -15.9379  -24.5845 C   0  0  0  0  0  0
  -16.1252  -17.2408  -24.8109 N   0  0  0  0  0  0
  -16.9849  -15.5731  -23.6086 O   0  0  0  0  0  0
  -15.3672  -17.7570  -25.8545 C   0  0  0  0  0  0
  -15.2007  -19.2429  -25.9383 C   0  0  0  0  0  0
  -14.7627  -19.8354  -27.1410 C   0  0  0  0  0  0
  -14.5526  -21.2084  -27.2168 C   0  0  0  0  0  0
  -14.7856  -22.0561  -26.1168 C   0  0  0  0  0  0
  -15.2482  -21.4682  -24.9220 C   0  0  0  0  0  0
  -15.4506  -20.0796  -24.8266 C   0  0  0  0  0  0
  -14.4990  -23.5581  -26.2014 C   0  0  0  0  0  0
  -14.2519  -23.9950  -27.5186 O   0  0  0  0  0  0
  -15.7322  -24.3667  -25.7692 C   0  0  0  0  0  0
  -13.2142  -23.8862  -25.4137 C   0  0  0  0  0  0
  -13.6895  -15.2281  -28.7727 C   0  0  0  0  0  0
  -14.1260  -12.6249  -28.2054 H   0  0  0  0  0  0
  -15.3761  -11.6790  -26.3376 H   0  0  0  0  0  0
  -16.4570  -13.1754  -24.6376 H   0  0  0  0  0  0
  -16.5636  -17.8923  -24.1740 H   0  0  0  0  0  0
  -14.5886  -19.2244  -28.0134 H   0  0  0  0  0  0
  -14.1598  -21.5734  -28.1478 H   0  0  0  0  0  0
  -15.4254  -22.0814  -24.0475 H   0  0  0  0  0  0
  -15.7725  -19.6689  -23.8840 H   0  0  0  0  0  0
  -14.1033  -24.9270  -27.5002 H   0  0  0  0  0  0
  -15.9633  -24.2296  -24.7132 H   0  0  0  0  0  0
  -15.6142  -25.4357  -25.9388 H   0  0  0  0  0  0
  -16.6088  -24.0563  -26.3408 H   0  0  0  0  0  0
  -13.3455  -23.7362  -24.3405 H   0  0  0  0  0  0
  -12.8481  -24.9020  -25.5693 H   0  0  0  0  0  0
  -12.4046  -23.2294  -25.7327 H   0  0  0  0  0  0
  -13.5479  -14.4990  -29.5710 H   0  0  0  0  0  0
  -12.7271  -15.5728  -28.4328 H   0  0  0  0  0  0
  -14.2266  -16.0915  -29.1420 H   0  0  0  0  0  0
  1  2  2  0  0  0
  1  3  1  0  0  0
  1 22  1  0  0  0
  2  4  1  0  0  0
  2  5  1  0  0  0
  3  6  2  0  0  0
  3 23  1  0  0  0
  4  7  2  0  0  0
  4  8  1  0  0  0
  5 11  2  0  0  0
  6  7  1  0  0  0
  6 24  1  0  0  0
  7 25  1  0  0  0
  8  9  1  0  0  0
  8 10  2  0  0  0
  9 11  1  0  0  0
  9 26  1  0  0  0
 11 12  1  0  0  0
 12 13  2  0  0  0
 12 17  1  0  0  0
 13 14  1  0  0  0
 13 27  1  0  0  0
 14 15  2  0  0  0
 14 28  1  0  0  0
 15 16  1  0  0  0
 15 18  1  0  0  0
 16 17  2  0  0  0
 16 29  1  0  0  0
 17 30  1  0  0  0
 18 19  1  0  0  0
 18 20  1  0  0  0
 18 21  1  0  0  0
 19 31  1  0  0  0
 20 32  1  0  0  0
 20 33  1  0  0  0
 20 34  1  0  0  0
 21 35  1  0  0  0
 21 36  1  0  0  0
 21 37  1  0  0  0
 22 38  1  0  0  0
 22 39  1  0  0  0
 22 40  1  0  0  0
M  END
> <s_m_entry_id>
462

> <Name>
5i

> <IC50[nM]>
1.4

> <s_m_Source_Path>
/projects/mai/users/kmzp800_harry/pmx_colab/docking_jobs/tnks2

> <s_m_Source_File>
tnks2_lig.sdf

> <i_m_Source_File_Index>
21

> <s_m_job_name>
glide-dock_SP_tnks2_core_const

> <r_i_docking_score>
-10.4870374095484

> <r_i_glide_gscore>
-10.4870374095484

> <r_i_glide_emodel>
-53.1061642310276

$$$$
5l
                    3D
 Schrodinger Suite 2021-4.
 37 39  0  0  1  0            999 V2000
  -15.1966  -19.2570  -25.9326 C   0  0  0  0  0  0
  -15.4353  -20.0961  -24.8211 C   0  0  0  0  0  0
  -14.7806  -19.8357  -27.1418 C   0  0  0  0  0  0
  -15.2028  -21.4855  -24.9213 C   0  0  0  0  0  0
  -14.5536  -21.2091  -27.2399 C   0  0  0  0  0  0
  -14.8482  -16.9959  -26.7651 N   0  0  0  0  0  0
  -14.7494  -22.0542  -26.1365 C   0  0  0  0  0  0
  -14.4280  -23.5437  -26.2403 C   0  0  0  0  0  0
  -16.3478  -15.9410  -24.6106 C   0  0  0  0  0  0
  -16.1129  -17.2405  -24.8118 N   0  0  0  0  0  0
  -15.3585  -17.7768  -25.8539 C   0  0  0  0  0  0
  -17.0071  -15.5729  -23.6492 O   0  0  0  0  0  0
  -15.6719  -24.3722  -25.9162 C   0  0  0  0  0  0
  -14.0639  -23.9720  -27.5386 O   0  0  0  0  0  0
  -13.2130  -23.8549  -25.3591 C   0  0  0  0  0  0
  -15.0333  -15.6029  -26.7002 C   0  0  0  0  0  0
  -15.7344  -15.0136  -25.6208 C   0  0  0  0  0  0
  -15.8071  -13.6045  -25.5178 C   0  0  0  0  0  0
  -15.1780  -12.7892  -26.4748 C   0  0  0  0  0  0
  -14.4976  -13.3712  -27.5534 C   0  0  0  0  0  0
  -14.4474  -14.7711  -27.6794 C   0  0  0  0  0  0
  -13.7635  -15.3061  -28.7177 F   0  0  0  0  0  0
  -16.4473  -13.0108  -24.4916 F   0  0  0  0  0  0
  -15.7592  -19.6906  -23.8731 H   0  0  0  0  0  0
  -14.5869  -19.2258  -28.0126 H   0  0  0  0  0  0
  -15.3553  -22.1072  -24.0520 H   0  0  0  0  0  0
  -14.1862  -21.5727  -28.1805 H   0  0  0  0  0  0
  -16.5582  -17.8809  -24.1657 H   0  0  0  0  0  0
  -16.0400  -24.1599  -24.9137 H   0  0  0  0  0  0
  -15.4886  -25.4430  -25.9454 H   0  0  0  0  0  0
  -16.4834  -24.1576  -26.6122 H   0  0  0  0  0  0
  -13.8680  -24.8965  -27.5060 H   0  0  0  0  0  0
  -13.4390  -23.7392  -24.2988 H   0  0  0  0  0  0
  -12.8469  -24.8671  -25.5219 H   0  0  0  0  0  0
  -12.3900  -23.1809  -25.5920 H   0  0  0  0  0  0
  -15.2127  -11.7148  -26.3841 H   0  0  0  0  0  0
  -14.0149  -12.7403  -28.2858 H   0  0  0  0  0  0
  1  2  2  0  0  0
  1  3  1  0  0  0
  1 11  1  0  0  0
  2  4  1  0  0  0
  2 24  1  0  0  0
  3  5  2  0  0  0
  3 25  1  0  0  0
  4  7  2  0  0  0
  4 26  1  0  0  0
  5  7  1  0  0  0
  5 27  1  0  0  0
  6 11  2  0  0  0
  6 16  1  0  0  0
  7  8  1  0  0  0
  8 13  1  0  0  0
  8 14  1  0  0  0
  8 15  1  0  0  0
  9 10  1  0  0  0
  9 12  2  0  0  0
  9 17  1  0  0  0
 10 11  1  0  0  0
 10 28  1  0  0  0
 13 29  1  0  0  0
 13 30  1  0  0  0
 13 31  1  0  0  0
 14 32  1  0  0  0
 15 33  1  0  0  0
 15 34  1  0  0  0
 15 35  1  0  0  0
 16 17  2  0  0  0
 16 21  1  0  0  0
 17 18  1  0  0  0
 18 19  2  0  0  0
 18 23  1  0  0  0
 19 20  1  0  0  0
 19 36  1  0  0  0
 20 21  2  0  0  0
 20 37  1  0  0  0
 21 22  1  0  0  0
M  END
> <s_m_entry_id>
463

> <Name>
5l

> <IC50[nM]>
40

> <s_m_Source_Path>
/projects/mai/users/kmzp800_harry/pmx_colab/docking_jobs/tnks2

> <s_m_Source_File>
tnks2_lig.sdf

> <i_m_Source_File_Index>
22

> <s_m_job_name>
glide-dock_SP_tnks2_core_const

> <r_i_docking_score>
-10.4022020593683

> <r_i_glide_gscore>
-10.4022020593683

> <r_i_glide_emodel>
-56.6231910955276

$$$$
5e
                    3D
 Schrodinger Suite 2021-4.
 37 39  0  0  1  0            999 V2000
  -14.4399  -15.3205  -27.8306 C   0  0  0  0  0  0
  -14.9998  -15.9976  -26.7386 C   0  0  0  0  0  0
  -14.4481  -13.9281  -27.8450 C   0  0  0  0  0  0
  -15.6480  -15.3047  -25.6921 C   0  0  0  0  0  0
  -14.8482  -17.3673  -26.7040 N   0  0  0  0  0  0
  -15.0140  -13.2446  -26.7624 C   0  0  0  0  0  0
  -15.6544  -13.9028  -25.6992 C   0  0  0  0  0  0
  -16.2386  -16.1097  -24.5772 C   0  0  0  0  0  0
  -16.0482  -17.4335  -24.6802 N   0  0  0  0  0  0
  -16.8482  -15.5995  -23.6436 O   0  0  0  0  0  0
  -15.3434  -18.0534  -25.7222 C   0  0  0  0  0  0
  -15.1986  -19.5122  -25.7944 C   0  0  0  0  0  0
  -14.8482  -20.0934  -27.0293 C   0  0  0  0  0  0
  -14.7365  -21.4724  -27.1386 C   0  0  0  0  0  0
  -15.0146  -22.2948  -26.0501 C   0  0  0  0  0  0
  -15.3129  -21.7109  -24.7979 C   0  0  0  0  0  0
  -15.4027  -20.3198  -24.6632 C   0  0  0  0  0  0
  -14.9974  -23.7905  -26.2465 C   0  0  0  0  0  0
  -15.6482  -24.3727  -25.1723 O   0  0  0  0  0  0
  -14.8482  -11.5727  -26.7386 Cl  0  0  0  0  0  0
  -13.5487  -24.3014  -26.3386 C   0  0  0  0  0  0
  -15.8338  -24.2586  -27.4474 C   0  0  0  0  0  0
  -13.9676  -15.8667  -28.6336 H   0  0  0  0  0  0
  -13.9764  -13.3853  -28.6515 H   0  0  0  0  0  0
  -16.0955  -13.3419  -24.8866 H   0  0  0  0  0  0
  -16.5015  -18.0170  -23.9869 H   0  0  0  0  0  0
  -14.6581  -19.5043  -27.9154 H   0  0  0  0  0  0
  -14.4483  -21.8950  -28.0724 H   0  0  0  0  0  0
  -15.5025  -22.3251  -23.9360 H   0  0  0  0  0  0
  -15.6485  -19.8953  -23.7008 H   0  0  0  0  0  0
  -15.6483  -25.3128  -25.2743 H   0  0  0  0  0  0
  -13.0222  -23.8498  -27.1798 H   0  0  0  0  0  0
  -13.5077  -25.3817  -26.4766 H   0  0  0  0  0  0
  -12.9861  -24.0595  -25.4354 H   0  0  0  0  0  0
  -15.3840  -23.9470  -28.3809 H   0  0  0  0  0  0
  -15.9058  -25.3464  -27.4876 H   0  0  0  0  0  0
  -16.8482  -23.8594  -27.4097 H   0  0  0  0  0  0
  1  2  2  0  0  0
  1  3  1  0  0  0
  1 23  1  0  0  0
  2  4  1  0  0  0
  2  5  1  0  0  0
  3  6  2  0  0  0
  3 24  1  0  0  0
  4  7  2  0  0  0
  4  8  1  0  0  0
  5 11  2  0  0  0
  6  7  1  0  0  0
  6 20  1  0  0  0
  7 25  1  0  0  0
  8  9  1  0  0  0
  8 10  2  0  0  0
  9 11  1  0  0  0
  9 26  1  0  0  0
 11 12  1  0  0  0
 12 13  2  0  0  0
 12 17  1  0  0  0
 13 14  1  0  0  0
 13 27  1  0  0  0
 14 15  2  0  0  0
 14 28  1  0  0  0
 15 16  1  0  0  0
 15 18  1  0  0  0
 16 17  2  0  0  0
 16 29  1  0  0  0
 17 30  1  0  0  0
 18 19  1  0  0  0
 18 21  1  0  0  0
 18 22  1  0  0  0
 19 31  1  0  0  0
 21 32  1  0  0  0
 21 33  1  0  0  0
 21 34  1  0  0  0
 22 35  1  0  0  0
 22 36  1  0  0  0
 22 37  1  0  0  0
M  END
> <s_m_entry_id>
464

> <Name>
5e

> <IC50[nM]>
39

> <s_m_Source_Path>
/projects/mai/users/kmzp800_harry/pmx_colab/docking_jobs/tnks2

> <s_m_Source_File>
tnks2_lig.sdf

> <i_m_Source_File_Index>
23

> <s_m_job_name>
glide-dock_SP_tnks2_core_const

> <r_i_docking_score>
-10.2220847438227

> <r_i_glide_gscore>
-10.2220847438227

> <r_i_glide_emodel>
-41.7410101925433

$$$$
5h
                    3D
 Schrodinger Suite 2021-4.
 41 43  0  0  1  0            999 V2000
  -14.4477  -14.7360  -27.6532 C   0  0  0  0  0  0
  -15.0408  -15.5785  -26.6790 C   0  0  0  0  0  0
  -14.5685  -13.3312  -27.5293 C   0  0  0  0  0  0
  -15.7558  -15.0083  -25.5989 C   0  0  0  0  0  0
  -14.8482  -16.9748  -26.7473 N   0  0  0  0  0  0
  -15.2492  -12.7763  -26.4318 C   0  0  0  0  0  0
  -15.8615  -13.6079  -25.4744 C   0  0  0  0  0  0
  -16.3541  -15.9440  -24.5911 C   0  0  0  0  0  0
  -16.1359  -17.2423  -24.8129 N   0  0  0  0  0  0
  -16.9919  -15.5727  -23.6161 O   0  0  0  0  0  0
  -15.3675  -17.7675  -25.8503 C   0  0  0  0  0  0
  -15.1977  -19.2497  -25.9342 C   0  0  0  0  0  0
  -15.4330  -20.0887  -24.8217 C   0  0  0  0  0  0
  -15.2077  -21.4778  -24.9097 C   0  0  0  0  0  0
  -14.7619  -22.0560  -26.1196 C   0  0  0  0  0  0
  -14.5572  -21.2106  -27.2264 C   0  0  0  0  0  0
  -14.7803  -19.8344  -27.1405 C   0  0  0  0  0  0
  -14.4651  -23.5527  -26.2151 C   0  0  0  0  0  0
  -14.1842  -23.9792  -27.5351 O   0  0  0  0  0  0
  -15.6946  -24.3728  -25.7941 C   0  0  0  0  0  0
  -13.2063  -23.8732  -25.3901 C   0  0  0  0  0  0
  -13.7028  -15.3383  -28.6436 O   0  0  0  0  0  0
  -12.9650  -14.5446  -29.5651 C   0  0  0  0  0  0
  -14.1288  -12.6481  -28.2407 H   0  0  0  0  0  0
  -15.3052  -11.7031  -26.3386 H   0  0  0  0  0  0
  -16.3944  -13.1707  -24.6408 H   0  0  0  0  0  0
  -16.5810  -17.8881  -24.1729 H   0  0  0  0  0  0
  -15.7553  -19.6789  -23.8760 H   0  0  0  0  0  0
  -15.3648  -22.0919  -24.0356 H   0  0  0  0  0  0
  -14.1889  -21.5727  -28.1665 H   0  0  0  0  0  0
  -14.5853  -19.2260  -28.0125 H   0  0  0  0  0  0
  -13.9909  -24.9038  -27.5164 H   0  0  0  0  0  0
  -15.9329  -24.2369  -24.7396 H   0  0  0  0  0  0
  -15.5603  -25.4398  -25.9618 H   0  0  0  0  0  0
  -16.5712  -24.0752  -26.3705 H   0  0  0  0  0  0
  -13.3755  -23.7264  -24.3230 H   0  0  0  0  0  0
  -12.8482  -24.8910  -25.5392 H   0  0  0  0  0  0
  -12.3892  -23.2129  -25.6791 H   0  0  0  0  0  0
  -12.1671  -15.1714  -29.9719 H   0  0  0  0  0  0
  -13.6048  -14.2167  -30.3850 H   0  0  0  0  0  0
  -12.4703  -13.6747  -29.1386 H   0  0  0  0  0  0
  1  2  2  0  0  0
  1  3  1  0  0  0
  1 22  1  0  0  0
  2  4  1  0  0  0
  2  5  1  0  0  0
  3  6  2  0  0  0
  3 24  1  0  0  0
  4  7  2  0  0  0
  4  8  1  0  0  0
  5 11  2  0  0  0
  6  7  1  0  0  0
  6 25  1  0  0  0
  7 26  1  0  0  0
  8  9  1  0  0  0
  8 10  2  0  0  0
  9 11  1  0  0  0
  9 27  1  0  0  0
 11 12  1  0  0  0
 12 13  2  0  0  0
 12 17  1  0  0  0
 13 14  1  0  0  0
 13 28  1  0  0  0
 14 15  2  0  0  0
 14 29  1  0  0  0
 15 16  1  0  0  0
 15 18  1  0  0  0
 16 17  2  0  0  0
 16 30  1  0  0  0
 17 31  1  0  0  0
 18 19  1  0  0  0
 18 20  1  0  0  0
 18 21  1  0  0  0
 19 32  1  0  0  0
 20 33  1  0  0  0
 20 34  1  0  0  0
 20 35  1  0  0  0
 21 36  1  0  0  0
 21 37  1  0  0  0
 21 38  1  0  0  0
 22 23  1  0  0  0
 23 39  1  0  0  0
 23 40  1  0  0  0
 23 41  1  0  0  0
M  END
> <s_m_entry_id>
465

> <Name>
5h

> <IC50[nM]>
43

> <s_m_Source_Path>
/projects/mai/users/kmzp800_harry/pmx_colab/docking_jobs/tnks2

> <s_m_Source_File>
tnks2_lig.sdf

> <i_m_Source_File_Index>
24

> <s_m_job_name>
glide-dock_SP_tnks2_core_const

> <r_i_docking_score>
-10.371368686834

> <r_i_glide_gscore>
-10.371368686834

> <r_i_glide_emodel>
-48.6985040607174

$$$$
8c
                    3D
 Schrodinger Suite 2021-4.
 43 46  0  0  1  0            999 V2000
  -14.4120  -14.8758  -27.7153 C   0  0  0  0  0  0
  -15.0192  -15.6375  -26.7031 C   0  0  0  0  0  0
  -14.4985  -13.4870  -27.6852 C   0  0  0  0  0  0
  -15.7522  -15.0233  -25.6634 C   0  0  0  0  0  0
  -14.8460  -17.0246  -26.7528 N   0  0  0  0  0  0
  -15.2419  -12.8622  -26.6791 C   0  0  0  0  0  0
  -15.8761  -13.6114  -25.6531 C   0  0  0  0  0  0
  -16.3517  -15.9416  -24.6274 C   0  0  0  0  0  0
  -16.1147  -17.2434  -24.8121 N   0  0  0  0  0  0
  -17.0155  -15.5727  -23.6728 O   0  0  0  0  0  0
  -15.3642  -17.7918  -25.8442 C   0  0  0  0  0  0
  -15.2000  -19.2639  -25.9280 C   0  0  0  0  0  0
  -14.7808  -19.8424  -27.1363 C   0  0  0  0  0  0
  -14.5656  -21.2172  -27.2204 C   0  0  0  0  0  0
  -14.7821  -22.0566  -26.1134 C   0  0  0  0  0  0
  -15.2350  -21.4863  -24.9072 C   0  0  0  0  0  0
  -15.4425  -20.0962  -24.8172 C   0  0  0  0  0  0
  -13.6973  -15.4687  -28.6992 F   0  0  0  0  0  0
  -15.2854  -11.5206  -26.7386 F   0  0  0  0  0  0
  -14.5201  -23.5495  -26.2218 C   0  0  0  0  0  0
  -15.5237  -24.2284  -27.1763 C   0  0  0  0  0  0
  -15.2045  -25.7161  -27.3896 C   0  0  0  0  0  0
  -13.8021  -25.9055  -27.8249 N   0  3  0  0  0  0
  -12.8112  -25.3288  -26.8880 C   0  0  0  0  0  0
  -13.0716  -23.8333  -26.6690 C   0  0  0  0  0  0
  -14.0154  -12.8930  -28.4472 H   0  0  0  0  0  0
  -16.4347  -13.1117  -24.8731 H   0  0  0  0  0  0
  -16.5593  -17.8725  -24.1570 H   0  0  0  0  0  0
  -14.5839  -19.2353  -28.0083 H   0  0  0  0  0  0
  -14.2013  -21.5727  -28.1634 H   0  0  0  0  0  0
  -15.4142  -22.1061  -24.0424 H   0  0  0  0  0  0
  -15.7707  -19.6820  -23.8758 H   0  0  0  0  0  0
  -14.6503  -23.9727  -25.2256 H   0  0  0  0  0  0
  -16.5385  -24.1189  -26.7912 H   0  0  0  0  0  0
  -15.5131  -23.7298  -28.1447 H   0  0  0  0  0  0
  -15.3864  -26.2729  -26.4716 H   0  0  0  0  0  0
  -15.8679  -26.1390  -28.1457 H   0  0  0  0  0  0
  -13.6209  -26.8959  -27.9224 H   0  0  0  0  0  0
  -12.8482  -25.8609  -25.9386 H   0  0  0  0  0  0
  -11.8082  -25.4765  -27.2891 H   0  0  0  0  0  0
  -12.8482  -23.3068  -27.5960 H   0  0  0  0  0  0
  -12.3757  -23.4427  -25.9258 H   0  0  0  0  0  0
  -13.6843  -25.4651  -28.7270 H   0  0  0  0  0  0
  1  2  2  0  0  0
  1  3  1  0  0  0
  1 18  1  0  0  0
  2  4  1  0  0  0
  2  5  1  0  0  0
  3  6  2  0  0  0
  3 26  1  0  0  0
  4  7  2  0  0  0
  4  8  1  0  0  0
  5 11  2  0  0  0
  6  7  1  0  0  0
  6 19  1  0  0  0
  7 27  1  0  0  0
  8  9  1  0  0  0
  8 10  2  0  0  0
  9 11  1  0  0  0
  9 28  1  0  0  0
 11 12  1  0  0  0
 12 13  2  0  0  0
 12 17  1  0  0  0
 13 14  1  0  0  0
 13 29  1  0  0  0
 14 15  2  0  0  0
 14 30  1  0  0  0
 15 16  1  0  0  0
 15 20  1  0  0  0
 16 17  2  0  0  0
 16 31  1  0  0  0
 17 32  1  0  0  0
 20 21  1  0  0  0
 20 25  1  0  0  0
 20 33  1  0  0  0
 21 22  1  0  0  0
 21 34  1  0  0  0
 21 35  1  0  0  0
 22 23  1  0  0  0
 22 36  1  0  0  0
 22 37  1  0  0  0
 23 24  1  0  0  0
 23 38  1  0  0  0
 23 43  1  0  0  0
 24 25  1  0  0  0
 24 39  1  0  0  0
 24 40  1  0  0  0
 25 41  1  0  0  0
 25 42  1  0  0  0
M  CHG  1  23   1
M  END
> <s_m_entry_id>
466

> <Name>
8c

> <IC50[nM]>
38

> <s_m_Source_Path>
/projects/mai/users/kmzp800_harry/pmx_colab/docking_jobs/tnks2

> <s_m_Source_File>
tnks2_lig.sdf

> <i_m_Source_File_Index>
25

> <s_m_job_name>
glide-dock_SP_tnks2_core_const

> <r_i_docking_score>
-10.5990038344776

> <r_i_glide_gscore>
-10.5990038344776

> <r_i_glide_emodel>
-49.6211351791318

$$$$
5a
                    3D
 Schrodinger Suite 2021-4.
 37 39  0  0  1  0            999 V2000
  -14.4661  -14.7661  -27.6535 C   0  0  0  0  0  0
  -15.0428  -15.6019  -26.6726 C   0  0  0  0  0  0
  -14.5473  -13.3708  -27.5389 C   0  0  0  0  0  0
  -15.7588  -15.0156  -25.6068 C   0  0  0  0  0  0
  -14.8478  -16.9964  -26.7633 N   0  0  0  0  0  0
  -15.2418  -12.7953  -26.4628 C   0  0  0  0  0  0
  -15.8592  -13.6148  -25.4983 C   0  0  0  0  0  0
  -16.3511  -15.9402  -24.5929 C   0  0  0  0  0  0
  -16.1409  -17.2295  -24.8141 N   0  0  0  0  0  0
  -16.9085  -15.5668  -23.5969 O   0  0  0  0  0  0
  -15.3761  -17.7716  -25.8457 C   0  0  0  0  0  0
  -15.2106  -19.2513  -25.9289 C   0  0  0  0  0  0
  -15.4463  -20.0992  -24.8165 C   0  0  0  0  0  0
  -15.2095  -21.4809  -24.9110 C   0  0  0  0  0  0
  -14.7238  -22.0541  -26.1139 C   0  0  0  0  0  0
  -14.5258  -21.2024  -27.2171 C   0  0  0  0  0  0
  -14.7774  -19.8369  -27.1286 C   0  0  0  0  0  0
  -14.4133  -23.5508  -26.2089 C   0  0  0  0  0  0
  -14.1320  -23.9694  -27.5005 O   0  0  0  0  0  0
  -15.6404  -24.3670  -25.8302 C   0  0  0  0  0  0
  -13.1474  -23.8898  -25.4144 C   0  0  0  0  0  0
  -13.9125  -15.2063  -28.4758 H   0  0  0  0  0  0
  -14.0920  -12.7395  -28.2720 H   0  0  0  0  0  0
  -15.3154  -11.7155  -26.3930 H   0  0  0  0  0  0
  -16.3920  -13.1727  -24.6778 H   0  0  0  0  0  0
  -16.5795  -17.8851  -24.1869 H   0  0  0  0  0  0
  -15.7817  -19.6945  -23.8810 H   0  0  0  0  0  0
  -15.3621  -22.0897  -24.0372 H   0  0  0  0  0  0
  -14.1421  -21.5690  -28.1452 H   0  0  0  0  0  0
  -14.5890  -19.2196  -27.9903 H   0  0  0  0  0  0
  -13.9800  -24.9035  -27.5048 H   0  0  0  0  0  0
  -15.8970  -24.2226  -24.7696 H   0  0  0  0  0  0
  -15.4957  -25.4399  -25.9709 H   0  0  0  0  0  0
  -16.5178  -24.0811  -26.4103 H   0  0  0  0  0  0
  -13.2854  -23.6971  -24.3443 H   0  0  0  0  0  0
  -12.8328  -24.9337  -25.5306 H   0  0  0  0  0  0
  -12.2934  -23.2971  -25.7496 H   0  0  0  0  0  0
  1  2  2  0  0  0
  1  3  1  0  0  0
  1 22  1  0  0  0
  2  4  1  0  0  0
  2  5  1  0  0  0
  3  6  2  0  0  0
  3 23  1  0  0  0
  4  7  2  0  0  0
  4  8  1  0  0  0
  5 11  2  0  0  0
  6  7  1  0  0  0
  6 24  1  0  0  0
  7 25  1  0  0  0
  8  9  1  0  0  0
  8 10  2  0  0  0
  9 11  1  0  0  0
  9 26  1  0  0  0
 11 12  1  0  0  0
 12 13  2  0  0  0
 12 17  1  0  0  0
 13 14  1  0  0  0
 13 27  1  0  0  0
 14 15  2  0  0  0
 14 28  1  0  0  0
 15 16  1  0  0  0
 15 18  1  0  0  0
 16 17  2  0  0  0
 16 29  1  0  0  0
 17 30  1  0  0  0
 18 19  1  0  0  0
 18 20  1  0  0  0
 18 21  1  0  0  0
 19 31  1  0  0  0
 20 32  1  0  0  0
 20 33  1  0  0  0
 20 34  1  0  0  0
 21 35  1  0  0  0
 21 36  1  0  0  0
 21 37  1  0  0  0
M  END
> <s_m_entry_id>
467

> <Name>
5a

> <IC50[nM]>
13

> <s_m_Source_Path>
/projects/mai/users/kmzp800_harry/pmx_colab/docking_jobs/tnks2

> <s_m_Source_File>
tnks2_lig.sdf

> <i_m_Source_File_Index>
26

> <s_m_job_name>
glide-dock_SP_tnks2_core_const

> <r_i_docking_score>
-10.3548903550867

> <r_i_glide_gscore>
-10.3548903550867

> <r_i_glide_emodel>
-58.3827474517958

$$$$
5d
                    3D
 Schrodinger Suite 2021-4.
 37 39  0  0  1  0            999 V2000
  -14.4435  -14.8983  -27.7410 C   0  0  0  0  0  0
  -15.0103  -15.6391  -26.6951 C   0  0  0  0  0  0
  -14.4765  -13.5046  -27.7028 C   0  0  0  0  0  0
  -15.7174  -15.0139  -25.6482 C   0  0  0  0  0  0
  -14.8480  -17.0252  -26.7400 N   0  0  0  0  0  0
  -15.1779  -12.8628  -26.6743 C   0  0  0  0  0  0
  -15.8109  -13.5998  -25.6404 C   0  0  0  0  0  0
  -15.2466  -11.5229  -26.7386 F   0  0  0  0  0  0
  -16.3458  -15.9268  -24.6225 C   0  0  0  0  0  0
  -16.1503  -17.2360  -24.8200 N   0  0  0  0  0  0
  -16.9945  -15.5590  -23.6573 O   0  0  0  0  0  0
  -15.3806  -17.7903  -25.8374 C   0  0  0  0  0  0
  -15.2018  -19.2637  -25.9233 C   0  0  0  0  0  0
  -15.4450  -20.1005  -24.8172 C   0  0  0  0  0  0
  -15.2149  -21.4872  -24.9112 C   0  0  0  0  0  0
  -14.7413  -22.0518  -26.1201 C   0  0  0  0  0  0
  -14.5234  -21.2080  -27.2204 C   0  0  0  0  0  0
  -14.7547  -19.8356  -27.1257 C   0  0  0  0  0  0
  -14.4152  -23.5384  -26.2197 C   0  0  0  0  0  0
  -14.0511  -23.9676  -27.5165 O   0  0  0  0  0  0
  -15.6548  -24.3726  -25.8901 C   0  0  0  0  0  0
  -13.1999  -23.8411  -25.3358 C   0  0  0  0  0  0
  -13.9304  -15.4010  -28.5490 H   0  0  0  0  0  0
  -14.0051  -12.9205  -28.4796 H   0  0  0  0  0  0
  -16.3546  -13.0879  -24.8588 H   0  0  0  0  0  0
  -16.6028  -17.8640  -24.1704 H   0  0  0  0  0  0
  -15.7904  -19.6961  -23.8773 H   0  0  0  0  0  0
  -15.3783  -22.1136  -24.0454 H   0  0  0  0  0  0
  -14.1342  -21.5729  -28.1535 H   0  0  0  0  0  0
  -14.5464  -19.2265  -27.9942 H   0  0  0  0  0  0
  -13.8391  -24.8876  -27.4807 H   0  0  0  0  0  0
  -16.0121  -24.1784  -24.8771 H   0  0  0  0  0  0
  -15.4705  -25.4423  -25.9452 H   0  0  0  0  0  0
  -16.4725  -24.1488  -26.5769 H   0  0  0  0  0  0
  -13.4256  -23.7062  -24.2770 H   0  0  0  0  0  0
  -12.8428  -24.8577  -25.4849 H   0  0  0  0  0  0
  -12.3675  -23.1804  -25.5771 H   0  0  0  0  0  0
  1  2  2  0  0  0
  1  3  1  0  0  0
  1 23  1  0  0  0
  2  4  1  0  0  0
  2  5  1  0  0  0
  3  6  2  0  0  0
  3 24  1  0  0  0
  4  7  2  0  0  0
  4  9  1  0  0  0
  5 12  2  0  0  0
  6  7  1  0  0  0
  6  8  1  0  0  0
  7 25  1  0  0  0
  9 10  1  0  0  0
  9 11  2  0  0  0
 10 12  1  0  0  0
 10 26  1  0  0  0
 12 13  1  0  0  0
 13 14  2  0  0  0
 13 18  1  0  0  0
 14 15  1  0  0  0
 14 27  1  0  0  0
 15 16  2  0  0  0
 15 28  1  0  0  0
 16 17  1  0  0  0
 16 19  1  0  0  0
 17 18  2  0  0  0
 17 29  1  0  0  0
 18 30  1  0  0  0
 19 20  1  0  0  0
 19 21  1  0  0  0
 19 22  1  0  0  0
 20 31  1  0  0  0
 21 32  1  0  0  0
 21 33  1  0  0  0
 21 34  1  0  0  0
 22 35  1  0  0  0
 22 36  1  0  0  0
 22 37  1  0  0  0
M  END
> <s_m_entry_id>
468

> <Name>
5d

> <IC50[nM]>
10.5

> <s_m_Source_Path>
/projects/mai/users/kmzp800_harry/pmx_colab/docking_jobs/tnks2

> <s_m_Source_File>
tnks2_lig.sdf

> <i_m_Source_File_Index>
27

> <s_m_job_name>
glide-dock_SP_tnks2_core_const

> <r_i_docking_score>
-10.4811838826317

> <r_i_glide_gscore>
-10.4811838826317

> <r_i_glide_emodel>
-42.3294041011575

$$$$
