5o
     RDKit          3D

 47 49  0  0  1  0  0  0  0  0999 V2000
  -14.8650  -19.1230  -25.8240 C   0  0  0  0  0  0  0  0  0  0  0  0
  -14.4200  -19.8590  -24.7190 C   0  0  0  0  0  0  0  0  0  0  0  0
  -15.0000  -19.7740  -27.0560 C   0  0  0  0  0  0  0  0  0  0  0  0
  -14.1140  -21.2080  -24.8550 C   0  0  0  0  0  0  0  0  0  0  0  0
  -14.7130  -21.1280  -27.1810 C   0  0  0  0  0  0  0  0  0  0  0  0
  -14.2780  -21.8700  -26.0820 C   0  0  0  0  0  0  0  0  0  0  0  0
  -14.7670  -16.8100  -26.5850 N   0  0  0  0  0  0  0  0  0  0  0  0
  -15.0020  -15.4290  -26.4490 C   0  0  0  0  0  0  0  0  0  0  0  0
  -15.7180  -14.9410  -25.3460 C   0  0  0  0  0  0  0  0  0  0  0  0
  -15.4710  -12.6880  -26.1740 C   0  0  0  0  0  0  0  0  0  0  0  0
  -14.7590  -13.1690  -27.2670 C   0  0  0  0  0  0  0  0  0  0  0  0
  -15.9540  -13.5700  -25.2030 C   0  0  0  0  0  0  0  0  0  0  0  0
  -14.5230  -14.5330  -27.4210 C   0  0  0  0  0  0  0  0  0  0  0  0
  -16.2240  -15.9330  -24.3200 C   0  0  0  0  0  0  0  0  0  0  0  0
  -15.8860  -17.2120  -24.6300 N   0  0  0  0  0  0  0  0  0  0  0  0
  -15.1600  -17.6760  -25.7110 C   0  0  0  0  0  0  0  0  0  0  0  0
  -16.8850  -15.6740  -23.3150 O   0  0  0  0  0  0  0  0  0  0  0  0
  -13.7490  -15.0070  -28.6360 C   0  0  0  0  0  0  0  0  0  0  0  0
  -15.7040  -11.3600  -26.0890 F   0  0  0  0  0  0  0  0  0  0  0  0
  -13.9450  -23.3750  -26.2150 C   0  0  0  0  0  0  0  0  0  0  0  0
  -15.2570  -24.1520  -26.4310 C   0  0  0  0  0  0  0  0  0  0  0  0
  -13.1920  -23.8000  -24.9510 C   0  0  0  0  0  0  0  0  0  0  0  0
  -13.0410  -23.5800  -27.3230 O   0  0  0  0  0  0  0  0  0  0  0  0
  -12.5980  -24.8940  -27.7100 C   0  0  0  0  0  0  0  0  0  0  0  0
  -11.1910  -25.0110  -28.3340 C   0  0  0  0  0  0  0  0  0  0  0  0
  -10.9200  -23.9660  -29.2350 O   0  0  0  0  0  0  0  0  0  0  0  0
  -14.3123  -19.3682  -23.7405 H   0  0  0  0  0  0  0  0  0  0  0  0
  -15.3374  -19.2068  -27.9360 H   0  0  0  0  0  0  0  0  0  0  0  0
  -13.7367  -21.7667  -23.9858 H   0  0  0  0  0  0  0  0  0  0  0  0
  -14.8301  -21.6206  -28.1575 H   0  0  0  0  0  0  0  0  0  0  0  0
  -14.3773  -12.4634  -28.0196 H   0  0  0  0  0  0  0  0  0  0  0  0
  -16.5137  -13.1898  -24.3357 H   0  0  0  0  0  0  0  0  0  0  0  0
  -16.2148  -17.9323  -23.9713 H   0  0  0  0  0  0  0  0  0  0  0  0
  -12.8533  -15.5555  -28.3091 H   0  0  0  0  0  0  0  0  0  0  0  0
  -14.3852  -15.6706  -29.2401 H   0  0  0  0  0  0  0  0  0  0  0  0
  -13.4471  -14.1387  -29.2401 H   0  0  0  0  0  0  0  0  0  0  0  0
  -15.6945  -24.4111  -25.4556 H   0  0  0  0  0  0  0  0  0  0  0  0
  -15.9645  -23.5271  -26.9958 H   0  0  0  0  0  0  0  0  0  0  0  0
  -15.0491  -25.0727  -26.9958 H   0  0  0  0  0  0  0  0  0  0  0  0
  -13.7572  -23.4810  -24.0628 H   0  0  0  0  0  0  0  0  0  0  0  0
  -13.0805  -24.8943  -24.9411 H   0  0  0  0  0  0  0  0  0  0  0  0
  -12.1975  -23.3300  -24.9411 H   0  0  0  0  0  0  0  0  0  0  0  0
  -12.6142  -25.5266  -26.8102 H   0  0  0  0  0  0  0  0  0  0  0  0
  -13.2882  -25.2008  -28.5097 H   0  0  0  0  0  0  0  0  0  0  0  0
  -10.4430  -24.9864  -27.5279 H   0  0  0  0  0  0  0  0  0  0  0  0
  -11.1474  -25.9577  -28.8925 H   0  0  0  0  0  0  0  0  0  0  0  0
  -10.7063  -23.1418  -28.7298 H   0  0  0  0  0  0  0  0  0  0  0  0
  1 16  1  0
  1  2  2  0
  1  3  1  0
  2  4  1  0
  3  5  2  0
  4  6  2  0
  5  6  1  0
  6 20  1  0
  7  8  1  0
  7 16  2  0
  8  9  2  0
  8 13  1  0
  9 12  1  0
  9 14  1  0
 10 19  1  0
 10 12  2  0
 10 11  1  0
 11 13  2  0
 13 18  1  0
 14 17  2  0
 14 15  1  0
 15 16  1  0
 20 22  1  0
 20 21  1  0
 20 23  1  0
 23 24  1  0
 24 25  1  0
 25 26  1  0
  2 27  1  0
  3 28  1  0
  4 29  1  0
  5 30  1  0
 11 31  1  0
 12 32  1  0
 15 33  1  0
 18 34  1  0
 18 35  1  0
 18 36  1  0
 21 37  1  0
 21 38  1  0
 21 39  1  0
 22 40  1  0
 22 41  1  0
 22 42  1  0
 24 43  1  0
 24 44  1  0
 25 45  1  0
 25 46  1  0
 26 47  1  0
M  END
>  <s_m_entry_id>  (1) 
2328

>  <MODEL>  (1) 
1

>  <REMARK>  (1) 
 VINA RESULT:   -10.091      0.000      0.000
 INTER + INTRA:         -13.906
 INTER:                 -13.335
 INTRA:                  -0.571
 UNBOUND:                -0.571
  Name = 5o
  9 active torsions:
  status: ('A' for Active; 'I' for Inactive)
    1  A    between atoms: C_1  and  C_17
    2  A    between atoms: C_7  and  C_8
    3  A    between atoms: C_8  and  C_19
    4  A    between atoms: C_8  and  O_20
    5  A    between atoms: C_8  and  C_21
    6  A    between atoms: C_14  and  C_22
    7  A    between atoms: O_20  and  C_24
    8  A    between atoms: C_24  and  C_25
    9  A    between atoms: C_25  and  O_26
                            x       y       z     vdW  Elec       q    Type
                         _______ _______ _______ _____ _____    ______ ____

>  <TORSDO>  (1) 
F 6

>  <s_m_Source_Path>  (1) 
/projects/mai/users/kmzp800_harry/pmx_colab/docking_jobs/tnks2/vina_prep/output

>  <s_m_Source_File>  (1) 
tnks_naive_vina.sdf

>  <i_m_Source_File_Index>  (1) 
1

$$$$
5k
     RDKit          3D

 37 39  0  0  1  0  0  0  0  0999 V2000
  -14.5170  -14.9010  -27.4620 C   0  0  0  0  0  0  0  0  0  0  0  0
  -14.9700  -15.7300  -26.4290 C   0  0  0  0  0  0  0  0  0  0  0  0
  -14.7720  -13.5350  -27.3900 C   0  0  0  0  0  0  0  0  0  0  0  0
  -15.6960  -15.2020  -25.3520 C   0  0  0  0  0  0  0  0  0  0  0  0
  -14.6810  -17.0910  -26.4850 N   0  0  0  0  0  0  0  0  0  0  0  0
  -15.4760  -13.0210  -26.3040 C   0  0  0  0  0  0  0  0  0  0  0  0
  -15.9500  -13.8370  -25.2830 C   0  0  0  0  0  0  0  0  0  0  0  0
  -16.2010  -16.1490  -24.2840 C   0  0  0  0  0  0  0  0  0  0  0  0
  -15.8100  -17.4290  -24.5210 N   0  0  0  0  0  0  0  0  0  0  0  0
  -16.9060  -15.8460  -23.3200 O   0  0  0  0  0  0  0  0  0  0  0  0
  -15.0750  -17.9230  -25.5850 C   0  0  0  0  0  0  0  0  0  0  0  0
  -13.8260  -15.3960  -28.5160 F   0  0  0  0  0  0  0  0  0  0  0  0
  -15.7150  -11.7130  -26.2510 F   0  0  0  0  0  0  0  0  0  0  0  0
  -14.7890  -19.3590  -25.6980 C   0  0  0  0  0  0  0  0  0  0  0  0
  -14.2950  -20.1050  -24.6220 C   0  0  0  0  0  0  0  0  0  0  0  0
  -13.9840  -21.4460  -24.8000 C   0  0  0  0  0  0  0  0  0  0  0  0
  -14.1800  -22.0580  -26.0430 C   0  0  0  0  0  0  0  0  0  0  0  0
  -14.7050  -21.3250  -27.1000 C   0  0  0  0  0  0  0  0  0  0  0  0
  -15.0080  -19.9900  -26.9310 C   0  0  0  0  0  0  0  0  0  0  0  0
  -13.7270  -23.4950  -26.2680 C   0  0  0  0  0  0  0  0  0  0  0  0
  -12.7600  -23.6000  -27.4380 C   0  0  0  0  0  0  0  0  0  0  0  0
  -14.9790  -24.3600  -26.3770 C   0  0  0  0  0  0  0  0  0  0  0  0
  -12.9730  -24.0510  -25.2220 O   0  0  0  0  0  0  0  0  0  0  0  0
  -14.4191  -12.8643  -28.1872 H   0  0  0  0  0  0  0  0  0  0  0  0
  -16.5135  -13.4119  -24.4393 H   0  0  0  0  0  0  0  0  0  0  0  0
  -16.0985  -18.1226  -23.8163 H   0  0  0  0  0  0  0  0  0  0  0  0
  -14.1538  -19.6308  -23.6396 H   0  0  0  0  0  0  0  0  0  0  0  0
  -13.5814  -22.0306  -23.9597 H   0  0  0  0  0  0  0  0  0  0  0  0
  -14.8791  -21.8095  -28.0721 H   0  0  0  0  0  0  0  0  0  0  0  0
  -15.4252  -19.4152  -27.7710 H   0  0  0  0  0  0  0  0  0  0  0  0
  -11.7341  -23.7114  -27.0570 H   0  0  0  0  0  0  0  0  0  0  0  0
  -13.0203  -24.4752  -28.0515 H   0  0  0  0  0  0  0  0  0  0  0  0
  -12.8264  -22.6894  -28.0515 H   0  0  0  0  0  0  0  0  0  0  0  0
  -15.3409  -24.6100  -25.3688 H   0  0  0  0  0  0  0  0  0  0  0  0
  -15.7599  -23.8079  -26.9204 H   0  0  0  0  0  0  0  0  0  0  0  0
  -14.7389  -25.2858  -26.9204 H   0  0  0  0  0  0  0  0  0  0  0  0
  -13.3554  -23.7690  -24.3535 H   0  0  0  0  0  0  0  0  0  0  0  0
  1  3  2  0
  1  2  1  0
  1 12  1  0
  2  4  2  0
  2  5  1  0
  3  6  1  0
  4  7  1  0
  4  8  1  0
  5 11  2  0
  6 13  1  0
  6  7  2  0
  8 10  2  0
  8  9  1  0
  9 11  1  0
 11 14  1  0
 14 15  2  0
 14 19  1  0
 15 16  1  0
 16 17  2  0
 17 18  1  0
 17 20  1  0
 18 19  2  0
 20 23  1  0
 20 21  1  0
 20 22  1  0
  3 24  1  0
  7 25  1  0
  9 26  1  0
 15 27  1  0
 16 28  1  0
 18 29  1  0
 19 30  1  0
 21 31  1  0
 21 32  1  0
 21 33  1  0
 22 34  1  0
 22 35  1  0
 22 36  1  0
 23 37  1  0
M  END
>  <s_m_entry_id>  (2) 
2329

>  <MODEL>  (2) 
1

>  <REMARK>  (2) 
 VINA RESULT:   -11.461      0.000      0.000
 INTER + INTRA:         -13.595
 INTER:                 -13.136
 INTRA:                  -0.459
 UNBOUND:                -0.459
  Name = 5k
  5 active torsions:
  status: ('A' for Active; 'I' for Inactive)
    1  A    between atoms: C_11  and  C_12
    2  A    between atoms: C_15  and  C_18
    3  A    between atoms: C_18  and  O_19
    4  A    between atoms: C_18  and  C_22
    5  A    between atoms: C_18  and  C_23
                            x       y       z     vdW  Elec       q    Type
                         _______ _______ _______ _____ _____    ______ ____

>  <TORSDO>  (2) 
F 3

>  <s_m_Source_Path>  (2) 
/projects/mai/users/kmzp800_harry/pmx_colab/docking_jobs/tnks2/vina_prep/output

>  <s_m_Source_File>  (2) 
tnks_naive_vina.sdf

>  <i_m_Source_File_Index>  (2) 
2

$$$$
8f
     RDKit          3D

 48 51  0  0  1  0  0  0  0  0999 V2000
  -14.5240  -14.5990  -27.4130 C   0  0  0  0  0  0  0  0  0  0  0  0
  -15.0250  -15.4490  -26.4090 C   0  0  0  0  0  0  0  0  0  0  0  0
  -14.6430  -13.2160  -27.2600 C   0  0  0  0  0  0  0  0  0  0  0  0
  -15.6910  -14.9020  -25.3040 C   0  0  0  0  0  0  0  0  0  0  0  0
  -14.8460  -16.8430  -26.5110 N   0  0  0  0  0  0  0  0  0  0  0  0
  -15.2800  -12.6770  -26.1460 C   0  0  0  0  0  0  0  0  0  0  0  0
  -15.8210  -13.5150  -25.1660 C   0  0  0  0  0  0  0  0  0  0  0  0
  -16.2730  -15.8520  -24.2770 C   0  0  0  0  0  0  0  0  0  0  0  0
  -15.9230  -17.1470  -24.5210 N   0  0  0  0  0  0  0  0  0  0  0  0
  -17.0050  -15.5400  -23.3380 O   0  0  0  0  0  0  0  0  0  0  0  0
  -15.2470  -17.6750  -25.6070 C   0  0  0  0  0  0  0  0  0  0  0  0
  -13.8300  -15.1230  -28.6590 C   0  0  0  0  0  0  0  0  0  0  0  0
  -15.3700  -11.3330  -26.0320 F   0  0  0  0  0  0  0  0  0  0  0  0
  -15.0450  -19.1430  -25.7280 C   0  0  0  0  0  0  0  0  0  0  0  0
  -15.0110  -19.7340  -27.0010 C   0  0  0  0  0  0  0  0  0  0  0  0
  -14.8470  -21.1060  -27.1500 C   0  0  0  0  0  0  0  0  0  0  0  0
  -14.7020  -21.9300  -26.0310 C   0  0  0  0  0  0  0  0  0  0  0  0
  -14.7180  -21.3480  -24.7600 C   0  0  0  0  0  0  0  0  0  0  0  0
  -14.8930  -19.9730  -24.6070 C   0  0  0  0  0  0  0  0  0  0  0  0
  -14.6300  -23.4600  -26.1760 C   0  0  0  0  0  0  0  0  0  0  0  0
  -15.7290  -23.9560  -27.1200 C   0  0  0  0  0  0  0  0  0  0  0  0
  -15.7060  -25.4810  -27.2610 C   0  0  0  0  0  0  0  0  0  0  0  0
  -14.4010  -25.8480  -27.9740 N   0  0  0  0  0  0  0  0  0  0  0  0
  -13.2180  -25.5090  -27.0630 C   0  0  0  0  0  0  0  0  0  0  0  0
  -13.2530  -24.0110  -26.6170 C   0  0  0  0  0  0  0  0  0  0  0  0
  -14.3910  -27.3500  -28.3560 C   0  0  0  0  0  0  0  0  0  0  0  0
  -14.2291  -12.5458  -28.0277 H   0  0  0  0  0  0  0  0  0  0  0  0
  -16.3429  -13.0891  -24.2964 H   0  0  0  0  0  0  0  0  0  0  0  0
  -16.1998  -17.8257  -23.7974 H   0  0  0  0  0  0  0  0  0  0  0  0
  -12.9838  -15.7619  -28.3661 H   0  0  0  0  0  0  0  0  0  0  0  0
  -14.5431  -15.7100  -29.2565 H   0  0  0  0  0  0  0  0  0  0  0  0
  -13.4607  -14.2764  -29.2565 H   0  0  0  0  0  0  0  0  0  0  0  0
  -15.1158  -19.1011  -27.8946 H   0  0  0  0  0  0  0  0  0  0  0  0
  -14.8312  -21.5470  -28.1576 H   0  0  0  0  0  0  0  0  0  0  0  0
  -14.5911  -21.9821  -23.8702 H   0  0  0  0  0  0  0  0  0  0  0  0
  -14.9121  -19.5350  -23.5981 H   0  0  0  0  0  0  0  0  0  0  0  0
  -14.7876  -23.8552  -25.1616 H   0  0  0  0  0  0  0  0  0  0  0  0
  -16.7072  -23.6492  -26.7213 H   0  0  0  0  0  0  0  0  0  0  0  0
  -15.5537  -23.5162  -28.1129 H   0  0  0  0  0  0  0  0  0  0  0  0
  -15.7386  -25.9523  -26.2676 H   0  0  0  0  0  0  0  0  0  0  0  0
  -16.5770  -25.8344  -27.8324 H   0  0  0  0  0  0  0  0  0  0  0  0
  -13.2591  -26.1495  -26.1697 H   0  0  0  0  0  0  0  0  0  0  0  0
  -12.2879  -25.6816  -27.6244 H   0  0  0  0  0  0  0  0  0  0  0  0
  -12.9030  -23.4010  -27.4628 H   0  0  0  0  0  0  0  0  0  0  0  0
  -12.6145  -23.9557  -25.7230 H   0  0  0  0  0  0  0  0  0  0  0  0
  -14.3869  -27.9610  -27.4413 H   0  0  0  0  0  0  0  0  0  0  0  0
  -15.2876  -27.5835  -28.9489 H   0  0  0  0  0  0  0  0  0  0  0  0
  -13.4914  -27.5716  -28.9489 H   0  0  0  0  0  0  0  0  0  0  0  0
  1  3  2  0
  1  2  1  0
  1 12  1  0
  2  4  2  0
  2  5  1  0
  3  6  1  0
  4  7  1  0
  4  8  1  0
  5 11  2  0
  6 13  1  0
  6  7  2  0
  8 10  2  0
  8  9  1  0
  9 11  1  0
 11 14  1  0
 14 19  1  0
 14 15  2  0
 15 16  1  0
 16 17  2  0
 17 18  1  0
 17 20  1  0
 18 19  2  0
 20 21  1  0
 20 25  1  0
 21 22  1  0
 22 23  1  0
 23 24  1  0
 23 26  1  0
 24 25  1  0
  3 27  1  0
  7 28  1  0
  9 29  1  0
 12 30  1  0
 12 31  1  0
 12 32  1  0
 15 33  1  0
 16 34  1  0
 18 35  1  0
 19 36  1  0
 20 37  1  0
 21 38  1  0
 21 39  1  0
 22 40  1  0
 22 41  1  0
 24 42  1  0
 24 43  1  0
 25 44  1  0
 25 45  1  0
 26 46  1  0
 26 47  1  0
 26 48  1  0
M  END
>  <s_m_entry_id>  (3) 
2330

>  <MODEL>  (3) 
1

>  <REMARK>  (3) 
 VINA RESULT:   -11.778      0.000      0.000
 INTER + INTRA:         -13.642
 INTER:                 -13.155
 INTRA:                  -0.487
 UNBOUND:                -0.487
  Name = 8f
  4 active torsions:
  status: ('A' for Active; 'I' for Inactive)
    1  A    between atoms: C_1  and  C_18
    2  A    between atoms: C_11  and  C_12
    3  A    between atoms: C_15  and  C_20
    4  A    between atoms: N_23  and  C_26
                            x       y       z     vdW  Elec       q    Type
                         _______ _______ _______ _____ _____    ______ ____

>  <TORSDO>  (3) 
F 2

>  <s_m_Source_Path>  (3) 
/projects/mai/users/kmzp800_harry/pmx_colab/docking_jobs/tnks2/vina_prep/output

>  <s_m_Source_File>  (3) 
tnks_naive_vina.sdf

>  <i_m_Source_File_Index>  (3) 
3

$$$$
5g
     RDKit          3D

 37 39  0  0  1  0  0  0  0  0999 V2000
  -14.5990  -14.4090  -27.4260 C   0  0  0  0  0  0  0  0  0  0  0  0
  -15.0700  -15.3450  -26.4910 C   0  0  0  0  0  0  0  0  0  0  0  0
  -14.8770  -13.0540  -27.2380 C   0  0  0  0  0  0  0  0  0  0  0  0
  -15.8740  -14.9180  -25.4270 C   0  0  0  0  0  0  0  0  0  0  0  0
  -14.7070  -16.6990  -26.6020 N   0  0  0  0  0  0  0  0  0  0  0  0
  -15.6370  -12.6350  -26.1460 C   0  0  0  0  0  0  0  0  0  0  0  0
  -16.1550  -13.5660  -25.2440 C   0  0  0  0  0  0  0  0  0  0  0  0
  -16.4250  -15.9580  -24.4820 C   0  0  0  0  0  0  0  0  0  0  0  0
  -15.9120  -17.1890  -24.7230 N   0  0  0  0  0  0  0  0  0  0  0  0
  -17.2680  -15.7680  -23.6110 O   0  0  0  0  0  0  0  0  0  0  0  0
  -15.0950  -17.5950  -25.7560 C   0  0  0  0  0  0  0  0  0  0  0  0
  -13.6500  -14.8790  -28.7960 Cl  0  0  0  0  0  0  0  0  0  0  0  0
  -14.7430  -19.0200  -25.8750 C   0  0  0  0  0  0  0  0  0  0  0  0
  -14.1400  -19.6630  -24.7880 C   0  0  0  0  0  0  0  0  0  0  0  0
  -13.8210  -21.0070  -24.8540 C   0  0  0  0  0  0  0  0  0  0  0  0
  -14.0900  -21.7410  -26.0100 C   0  0  0  0  0  0  0  0  0  0  0  0
  -14.6640  -21.1000  -27.1130 C   0  0  0  0  0  0  0  0  0  0  0  0
  -14.9910  -19.7520  -27.0460 C   0  0  0  0  0  0  0  0  0  0  0  0
  -13.8960  -23.2560  -26.0210 C   0  0  0  0  0  0  0  0  0  0  0  0
  -12.9840  -23.7560  -27.1510 C   0  0  0  0  0  0  0  0  0  0  0  0
  -15.2880  -23.8870  -26.0140 C   0  0  0  0  0  0  0  0  0  0  0  0
  -13.2400  -23.7560  -24.8860 O   0  0  0  0  0  0  0  0  0  0  0  0
  -14.4946  -12.3126  -27.9550 H   0  0  0  0  0  0  0  0  0  0  0  0
  -15.8297  -11.5627  -25.9944 H   0  0  0  0  0  0  0  0  0  0  0  0
  -16.7774  -13.2360  -24.3992 H   0  0  0  0  0  0  0  0  0  0  0  0
  -16.1669  -17.9192  -24.0428 H   0  0  0  0  0  0  0  0  0  0  0  0
  -13.9178  -19.0943  -23.8730 H   0  0  0  0  0  0  0  0  0  0  0  0
  -13.3523  -21.5006  -23.9899 H   0  0  0  0  0  0  0  0  0  0  0  0
  -14.8570  -21.6656  -28.0365 H   0  0  0  0  0  0  0  0  0  0  0  0
  -15.4468  -19.2556  -27.9154 H   0  0  0  0  0  0  0  0  0  0  0  0
  -12.0972  -24.2422  -26.7184 H   0  0  0  0  0  0  0  0  0  0  0  0
  -13.5326  -24.4795  -27.7720 H   0  0  0  0  0  0  0  0  0  0  0  0
  -12.6690  -22.9044  -27.7720 H   0  0  0  0  0  0  0  0  0  0  0  0
  -15.6176  -24.0364  -24.9752 H   0  0  0  0  0  0  0  0  0  0  0  0
  -15.9949  -23.2213  -26.5309 H   0  0  0  0  0  0  0  0  0  0  0  0
  -15.2533  -24.8574  -26.5309 H   0  0  0  0  0  0  0  0  0  0  0  0
  -13.6862  -23.4159  -24.0703 H   0  0  0  0  0  0  0  0  0  0  0  0
  1  3  2  0
  1  2  1  0
  1 12  1  0
  2  4  2  0
  2  5  1  0
  3  6  1  0
  4  7  1  0
  4  8  1  0
  5 11  2  0
  6  7  2  0
  8 10  2  0
  8  9  1  0
  9 11  1  0
 11 13  1  0
 13 14  2  0
 13 18  1  0
 14 15  1  0
 15 16  2  0
 16 17  1  0
 16 19  1  0
 17 18  2  0
 19 21  1  0
 19 22  1  0
 19 20  1  0
  3 23  1  0
  6 24  1  0
  7 25  1  0
  9 26  1  0
 14 27  1  0
 15 28  1  0
 17 29  1  0
 18 30  1  0
 20 31  1  0
 20 32  1  0
 20 33  1  0
 21 34  1  0
 21 35  1  0
 21 36  1  0
 22 37  1  0
M  END
>  <s_m_entry_id>  (4) 
2331

>  <MODEL>  (4) 
1

>  <REMARK>  (4) 
 VINA RESULT:   -10.981      0.000      0.000
 INTER + INTRA:         -13.027
 INTER:                 -12.585
 INTRA:                  -0.442
 UNBOUND:                -0.442
  Name = 5g
  5 active torsions:
  status: ('A' for Active; 'I' for Inactive)
    1  A    between atoms: C_11  and  C_12
    2  A    between atoms: C_15  and  C_18
    3  A    between atoms: C_18  and  O_19
    4  A    between atoms: C_18  and  C_20
    5  A    between atoms: C_18  and  C_21
                            x       y       z     vdW  Elec       q    Type
                         _______ _______ _______ _____ _____    ______ ____

>  <TORSDO>  (4) 
F 3

>  <s_m_Source_Path>  (4) 
/projects/mai/users/kmzp800_harry/pmx_colab/docking_jobs/tnks2/vina_prep/output

>  <s_m_Source_File>  (4) 
tnks_naive_vina.sdf

>  <i_m_Source_File_Index>  (4) 
4

$$$$
8b
     RDKit          3D

 47 50  0  0  1  0  0  0  0  0999 V2000
  -14.5020  -14.6200  -27.3840 C   0  0  0  0  0  0  0  0  0  0  0  0
  -15.0090  -15.4670  -26.3810 C   0  0  0  0  0  0  0  0  0  0  0  0
  -14.6310  -13.2370  -27.2400 C   0  0  0  0  0  0  0  0  0  0  0  0
  -15.6910  -14.9180  -25.2870 C   0  0  0  0  0  0  0  0  0  0  0  0
  -14.8200  -16.8600  -26.4720 N   0  0  0  0  0  0  0  0  0  0  0  0
  -15.2840  -12.6950  -26.1370 C   0  0  0  0  0  0  0  0  0  0  0  0
  -15.8310  -13.5310  -25.1580 C   0  0  0  0  0  0  0  0  0  0  0  0
  -16.2780  -15.8650  -24.2600 C   0  0  0  0  0  0  0  0  0  0  0  0
  -15.9170  -17.1600  -24.4930 N   0  0  0  0  0  0  0  0  0  0  0  0
  -17.0230  -15.5520  -23.3320 O   0  0  0  0  0  0  0  0  0  0  0  0
  -15.2260  -17.6900  -25.5670 C   0  0  0  0  0  0  0  0  0  0  0  0
  -15.3850  -11.3520  -26.0320 F   0  0  0  0  0  0  0  0  0  0  0  0
  -13.8130  -15.2200  -28.6240 C   0  0  0  0  0  0  0  0  0  0  0  0
  -15.0130  -19.1580  -25.6780 C   0  0  0  0  0  0  0  0  0  0  0  0
  -14.9820  -19.7580  -26.9460 C   0  0  0  0  0  0  0  0  0  0  0  0
  -14.8080  -21.1310  -27.0850 C   0  0  0  0  0  0  0  0  0  0  0  0
  -14.6500  -21.9440  -25.9590 C   0  0  0  0  0  0  0  0  0  0  0  0
  -14.6640  -21.3510  -24.6930 C   0  0  0  0  0  0  0  0  0  0  0  0
  -14.8490  -19.9760  -24.5500 C   0  0  0  0  0  0  0  0  0  0  0  0
  -14.5750  -23.3170  -26.0780 N   0  0  0  0  0  0  0  0  0  0  0  0
  -15.6230  -23.8200  -27.0770 C   0  0  0  0  0  0  0  0  0  0  0  0
  -15.5870  -25.3460  -27.2090 C   0  0  0  0  0  0  0  0  0  0  0  0
  -14.2470  -25.7130  -27.8490 N   0  0  0  0  0  0  0  0  0  0  0  0
  -13.1150  -25.3660  -26.8790 C   0  0  0  0  0  0  0  0  0  0  0  0
  -13.1760  -23.8660  -26.4440 C   0  0  0  0  0  0  0  0  0  0  0  0
  -14.2120  -27.2160  -28.2240 C   0  0  0  0  0  0  0  0  0  0  0  0
  -14.2119  -12.5688  -28.0067 H   0  0  0  0  0  0  0  0  0  0  0  0
  -16.3651  -13.1035  -24.2966 H   0  0  0  0  0  0  0  0  0  0  0  0
  -16.1981  -17.8363  -23.7687 H   0  0  0  0  0  0  0  0  0  0  0  0
  -13.0193  -15.9112  -28.3040 H   0  0  0  0  0  0  0  0  0  0  0  0
  -14.5536  -15.7660  -29.2268 H   0  0  0  0  0  0  0  0  0  0  0  0
  -13.3740  -14.4114  -29.2268 H   0  0  0  0  0  0  0  0  0  0  0  0
  -15.0971  -19.1330  -27.8439 H   0  0  0  0  0  0  0  0  0  0  0  0
  -14.7946  -21.5805  -28.0889 H   0  0  0  0  0  0  0  0  0  0  0  0
  -14.5274  -21.9766  -23.7986 H   0  0  0  0  0  0  0  0  0  0  0  0
  -14.8665  -19.5294  -23.5449 H   0  0  0  0  0  0  0  0  0  0  0  0
  -16.6216  -23.5147  -26.7313 H   0  0  0  0  0  0  0  0  0  0  0  0
  -15.3986  -23.3833  -28.0614 H   0  0  0  0  0  0  0  0  0  0  0  0
  -15.6708  -25.8123  -26.2162 H   0  0  0  0  0  0  0  0  0  0  0  0
  -16.4251  -25.7046  -27.8246 H   0  0  0  0  0  0  0  0  0  0  0  0
  -13.2021  -26.0015  -25.9854 H   0  0  0  0  0  0  0  0  0  0  0  0
  -12.1563  -25.5395  -27.3897 H   0  0  0  0  0  0  0  0  0  0  0  0
  -12.7843  -23.2597  -27.2741 H   0  0  0  0  0  0  0  0  0  0  0  0
  -12.5843  -23.8037  -25.5188 H   0  0  0  0  0  0  0  0  0  0  0  0
  -14.1979  -27.8226  -27.3065 H   0  0  0  0  0  0  0  0  0  0  0  0
  -15.1045  -27.4671  -28.8159 H   0  0  0  0  0  0  0  0  0  0  0  0
  -13.3087  -27.4253  -28.8159 H   0  0  0  0  0  0  0  0  0  0  0  0
  1  3  2  0
  1  2  1  0
  1 13  1  0
  2  4  2  0
  2  5  1  0
  3  6  1  0
  4  7  1  0
  4  8  1  0
  5 11  2  0
  6 12  1  0
  6  7  2  0
  8 10  2  0
  8  9  1  0
  9 11  1  0
 11 14  1  0
 14 19  1  0
 14 15  2  0
 15 16  1  0
 16 17  2  0
 17 18  1  0
 17 20  1  0
 18 19  2  0
 20 21  1  0
 20 25  1  0
 21 22  1  0
 22 23  1  0
 23 24  1  0
 23 26  1  0
 24 25  1  0
  3 27  1  0
  7 28  1  0
  9 29  1  0
 13 30  1  0
 13 31  1  0
 13 32  1  0
 15 33  1  0
 16 34  1  0
 18 35  1  0
 19 36  1  0
 21 37  1  0
 21 38  1  0
 22 39  1  0
 22 40  1  0
 24 41  1  0
 24 42  1  0
 25 43  1  0
 25 44  1  0
 26 45  1  0
 26 46  1  0
 26 47  1  0
M  END
>  <s_m_entry_id>  (5) 
2332

>  <MODEL>  (5) 
1

>  <REMARK>  (5) 
 VINA RESULT:   -11.183      0.000      0.000
 INTER + INTRA:         -12.905
 INTER:                 -12.490
 INTRA:                  -0.414
 UNBOUND:                -0.414
  Name = 8b
  4 active torsions:
  status: ('A' for Active; 'I' for Inactive)
    1  A    between atoms: C_1  and  C_45
    2  A    between atoms: C_11  and  C_12
    3  A    between atoms: C_15  and  N_19
    4  A    between atoms: N_22  and  C_25
                            x       y       z     vdW  Elec       q    Type
                         _______ _______ _______ _____ _____    ______ ____

>  <TORSDO>  (5) 
F 2

>  <s_m_Source_Path>  (5) 
/projects/mai/users/kmzp800_harry/pmx_colab/docking_jobs/tnks2/vina_prep/output

>  <s_m_Source_File>  (5) 
tnks_naive_vina.sdf

>  <i_m_Source_File_Index>  (5) 
5

$$$$
8e
     RDKit          3D

 45 48  0  0  1  0  0  0  0  0999 V2000
  -14.4920  -14.8240  -27.4280 C   0  0  0  0  0  0  0  0  0  0  0  0
  -14.9820  -15.6750  -26.4250 C   0  0  0  0  0  0  0  0  0  0  0  0
  -14.6350  -13.4430  -27.2940 C   0  0  0  0  0  0  0  0  0  0  0  0
  -15.6580  -15.1270  -25.3220 C   0  0  0  0  0  0  0  0  0  0  0  0
  -14.7850  -17.0670  -26.5260 N   0  0  0  0  0  0  0  0  0  0  0  0
  -15.2780  -12.9040  -26.1810 C   0  0  0  0  0  0  0  0  0  0  0  0
  -15.8060  -13.7410  -25.1950 C   0  0  0  0  0  0  0  0  0  0  0  0
  -16.2190  -16.0740  -24.2820 C   0  0  0  0  0  0  0  0  0  0  0  0
  -15.9630  -17.3780  -24.5870 N   0  0  0  0  0  0  0  0  0  0  0  0
  -16.8590  -15.7520  -23.2780 O   0  0  0  0  0  0  0  0  0  0  0  0
  -15.2390  -17.9010  -25.6480 C   0  0  0  0  0  0  0  0  0  0  0  0
  -13.8680  -15.3060  -28.5240 F   0  0  0  0  0  0  0  0  0  0  0  0
  -15.3900  -11.5610  -26.0720 F   0  0  0  0  0  0  0  0  0  0  0  0
  -15.0460  -19.3730  -25.7560 C   0  0  0  0  0  0  0  0  0  0  0  0
  -14.7600  -19.9500  -27.0030 C   0  0  0  0  0  0  0  0  0  0  0  0
  -14.6070  -21.3270  -27.1360 C   0  0  0  0  0  0  0  0  0  0  0  0
  -14.7200  -22.1700  -26.0250 C   0  0  0  0  0  0  0  0  0  0  0  0
  -14.9810  -21.5970  -24.7750 C   0  0  0  0  0  0  0  0  0  0  0  0
  -15.1510  -20.2190  -24.6410 C   0  0  0  0  0  0  0  0  0  0  0  0
  -14.6710  -23.6840  -26.1700 C   0  0  0  0  0  0  0  0  0  0  0  0
  -15.7950  -24.1730  -27.0920 C   0  0  0  0  0  0  0  0  0  0  0  0
  -15.6830  -25.6870  -27.3420 C   0  0  0  0  0  0  0  0  0  0  0  0
  -14.3760  -26.0010  -27.9300 N   0  0  0  0  0  0  0  0  0  0  0  0
  -13.2990  -25.6440  -26.9990 C   0  0  0  0  0  0  0  0  0  0  0  0
  -13.3150  -24.1280  -26.7360 C   0  0  0  0  0  0  0  0  0  0  0  0
  -14.3090  -27.4430  -28.2140 C   0  0  0  0  0  0  0  0  0  0  0  0
  -14.2376  -12.7747  -28.0721 H   0  0  0  0  0  0  0  0  0  0  0  0
  -16.3325  -13.3153  -24.3280 H   0  0  0  0  0  0  0  0  0  0  0  0
  -16.3631  -18.0715  -23.9390 H   0  0  0  0  0  0  0  0  0  0  0  0
  -14.6553  -19.3048  -27.8878 H   0  0  0  0  0  0  0  0  0  0  0  0
  -14.3948  -21.7574  -28.1258 H   0  0  0  0  0  0  0  0  0  0  0  0
  -15.0530  -22.2417  -23.8867 H   0  0  0  0  0  0  0  0  0  0  0  0
  -15.3696  -19.7910  -23.6515 H   0  0  0  0  0  0  0  0  0  0  0  0
  -14.8061  -24.1256  -25.1716 H   0  0  0  0  0  0  0  0  0  0  0  0
  -16.7657  -23.9568  -26.6219 H   0  0  0  0  0  0  0  0  0  0  0  0
  -15.7094  -23.6511  -28.0565 H   0  0  0  0  0  0  0  0  0  0  0  0
  -15.7919  -26.2232  -26.3877 H   0  0  0  0  0  0  0  0  0  0  0  0
  -16.4768  -25.9989  -28.0367 H   0  0  0  0  0  0  0  0  0  0  0  0
  -13.4447  -26.1804  -26.0498 H   0  0  0  0  0  0  0  0  0  0  0  0
  -12.3312  -25.9248  -27.4401 H   0  0  0  0  0  0  0  0  0  0  0  0
  -13.1278  -23.5967  -27.6808 H   0  0  0  0  0  0  0  0  0  0  0  0
  -12.5326  -23.8909  -26.0000 H   0  0  0  0  0  0  0  0  0  0  0  0
  -14.2830  -28.0024  -27.2672 H   0  0  0  0  0  0  0  0  0  0  0  0
  -15.1941  -27.7441  -28.7936 H   0  0  0  0  0  0  0  0  0  0  0  0
  -13.3998  -27.6607  -28.7936 H   0  0  0  0  0  0  0  0  0  0  0  0
  1  3  2  0
  1  2  1  0
  1 12  1  0
  2  4  2  0
  2  5  1  0
  3  6  1  0
  4  7  1  0
  4  8  1  0
  5 11  2  0
  6 13  1  0
  6  7  2  0
  8 10  2  0
  8  9  1  0
  9 11  1  0
 11 14  1  0
 14 19  1  0
 14 15  2  0
 15 16  1  0
 16 17  2  0
 17 18  1  0
 17 20  1  0
 18 19  2  0
 20 21  1  0
 20 25  1  0
 21 22  1  0
 22 23  1  0
 23 24  1  0
 23 26  1  0
 24 25  1  0
  3 27  1  0
  7 28  1  0
  9 29  1  0
 15 30  1  0
 16 31  1  0
 18 32  1  0
 19 33  1  0
 20 34  1  0
 21 35  1  0
 21 36  1  0
 22 37  1  0
 22 38  1  0
 24 39  1  0
 24 40  1  0
 25 41  1  0
 25 42  1  0
 26 43  1  0
 26 44  1  0
 26 45  1  0
M  END
>  <s_m_entry_id>  (6) 
2333

>  <MODEL>  (6) 
1

>  <REMARK>  (6) 
 VINA RESULT:   -12.524      0.000      0.000
 INTER + INTRA:         -14.486
 INTER:                 -13.989
 INTRA:                  -0.497
 UNBOUND:                -0.497
  Name = 8e
  3 active torsions:
  status: ('A' for Active; 'I' for Inactive)
    1  A    between atoms: C_11  and  C_12
    2  A    between atoms: C_15  and  C_20
    3  A    between atoms: N_23  and  C_26
                            x       y       z     vdW  Elec       q    Type
                         _______ _______ _______ _____ _____    ______ ____

>  <TORSDO>  (6) 
F 2

>  <s_m_Source_Path>  (6) 
/projects/mai/users/kmzp800_harry/pmx_colab/docking_jobs/tnks2/vina_prep/output

>  <s_m_Source_File>  (6) 
tnks_naive_vina.sdf

>  <i_m_Source_File_Index>  (6) 
6

$$$$
7
     RDKit          3D

 36 38  0  0  1  0  0  0  0  0999 V2000
  -15.0740  -17.8210  -25.7210 C   0  0  0  0  0  0  0  0  0  0  0  0
  -15.7990  -17.3240  -24.6490 N   0  0  0  0  0  0  0  0  0  0  0  0
  -16.1460  -16.0400  -24.3700 C   0  0  0  0  0  0  0  0  0  0  0  0
  -14.6910  -16.9820  -26.6270 N   0  0  0  0  0  0  0  0  0  0  0  0
  -14.9410  -15.6070  -26.5190 C   0  0  0  0  0  0  0  0  0  0  0  0
  -15.6390  -15.0770  -25.4240 C   0  0  0  0  0  0  0  0  0  0  0  0
  -15.8460  -13.6970  -25.3220 C   0  0  0  0  0  0  0  0  0  0  0  0
  -15.3530  -12.8580  -26.3280 C   0  0  0  0  0  0  0  0  0  0  0  0
  -14.6720  -13.3900  -27.4230 C   0  0  0  0  0  0  0  0  0  0  0  0
  -14.4670  -14.7660  -27.5240 C   0  0  0  0  0  0  0  0  0  0  0  0
  -16.8120  -15.7500  -23.3730 O   0  0  0  0  0  0  0  0  0  0  0  0
  -15.5330  -11.5210  -26.2540 F   0  0  0  0  0  0  0  0  0  0  0  0
  -14.7710  -19.2690  -25.7960 C   0  0  0  0  0  0  0  0  0  0  0  0
  -14.1900  -19.9370  -24.7110 N   0  0  0  0  0  0  0  0  0  0  0  0
  -15.0440  -19.9950  -26.9660 C   0  0  0  0  0  0  0  0  0  0  0  0
  -13.8940  -21.2900  -24.7970 C   0  0  0  0  0  0  0  0  0  0  0  0
  -14.7750  -21.3580  -27.0380 C   0  0  0  0  0  0  0  0  0  0  0  0
  -14.2010  -22.0270  -25.9520 C   0  0  0  0  0  0  0  0  0  0  0  0
  -13.8540  -23.5330  -26.0370 C   0  0  0  0  0  0  0  0  0  0  0  0
  -12.9120  -23.7630  -27.2390 C   0  0  0  0  0  0  0  0  0  0  0  0
  -15.1760  -24.2970  -26.1680 C   0  0  0  0  0  0  0  0  0  0  0  0
  -13.2780  -23.9600  -24.7840 O   0  0  0  0  0  0  0  0  0  0  0  0
  -16.1199  -18.0270  -23.9680 H   0  0  0  0  0  0  0  0  0  0  0  0
  -16.3890  -13.2770  -24.4625 H   0  0  0  0  0  0  0  0  0  0  0  0
  -14.2948  -12.7212  -28.2106 H   0  0  0  0  0  0  0  0  0  0  0  0
  -13.9348  -15.1844  -28.3910 H   0  0  0  0  0  0  0  0  0  0  0  0
  -15.4760  -19.4798  -27.8366 H   0  0  0  0  0  0  0  0  0  0  0  0
  -13.4110  -21.7933  -23.9465 H   0  0  0  0  0  0  0  0  0  0  0  0
  -15.0156  -21.9140  -27.9562 H   0  0  0  0  0  0  0  0  0  0  0  0
  -11.9042  -24.0091  -26.8732 H   0  0  0  0  0  0  0  0  0  0  0  0
  -13.2935  -24.5944  -27.8500 H   0  0  0  0  0  0  0  0  0  0  0  0
  -12.8674  -22.8494  -27.8500 H   0  0  0  0  0  0  0  0  0  0  0  0
  -15.5691  -24.5242  -25.1660 H   0  0  0  0  0  0  0  0  0  0  0  0
  -15.9033  -23.6800  -26.7160 H   0  0  0  0  0  0  0  0  0  0  0  0
  -15.0045  -25.2352  -26.7160 H   0  0  0  0  0  0  0  0  0  0  0  0
  -13.7971  -23.5752  -24.0340 H   0  0  0  0  0  0  0  0  0  0  0  0
  1  2  1  0
  1  4  2  0
  1 13  1  0
  2  3  1  0
  3 11  2  0
  3  6  1  0
  4  5  1  0
  5  6  2  0
  5 10  1  0
  6  7  1  0
  7  8  2  0
  8 12  1  0
  8  9  1  0
  9 10  2  0
 13 14  2  0
 13 15  1  0
 14 16  1  0
 15 17  2  0
 16 18  2  0
 17 18  1  0
 18 19  1  0
 19 22  1  0
 19 20  1  0
 19 21  1  0
  2 23  1  0
  7 24  1  0
  9 25  1  0
 10 26  1  0
 15 27  1  0
 16 28  1  0
 17 29  1  0
 20 30  1  0
 20 31  1  0
 20 32  1  0
 21 33  1  0
 21 34  1  0
 21 35  1  0
 22 36  1  0
M  END
>  <s_m_entry_id>  (7) 
2334

>  <MODEL>  (7) 
1

>  <REMARK>  (7) 
 VINA RESULT:   -10.536      0.000      0.000
 INTER + INTRA:         -12.424
 INTER:                 -12.076
 INTRA:                  -0.348
 UNBOUND:                -0.348
  Name = 7
  5 active torsions:
  status: ('A' for Active; 'I' for Inactive)
    1  A    between atoms: C_1  and  C_4
    2  A    between atoms: C_7  and  C_18
    3  A    between atoms: C_18  and  O_19
    4  A    between atoms: C_18  and  C_21
    5  A    between atoms: C_18  and  C_22
                            x       y       z     vdW  Elec       q    Type
                         _______ _______ _______ _____ _____    ______ ____

>  <TORSDO>  (7) 
F 3

>  <s_m_Source_Path>  (7) 
/projects/mai/users/kmzp800_harry/pmx_colab/docking_jobs/tnks2/vina_prep/output

>  <s_m_Source_File>  (7) 
tnks_naive_vina.sdf

>  <i_m_Source_File_Index>  (7) 
7

$$$$
5c
     RDKit          3D

 37 39  0  0  1  0  0  0  0  0999 V2000
  -14.4660  -14.9160  -27.6340 C   0  0  0  0  0  0  0  0  0  0  0  0
  -14.9030  -15.7730  -26.6220 C   0  0  0  0  0  0  0  0  0  0  0  0
  -14.6660  -13.5400  -27.4980 C   0  0  0  0  0  0  0  0  0  0  0  0
  -15.5960  -15.2740  -25.5110 C   0  0  0  0  0  0  0  0  0  0  0  0
  -14.6010  -17.1360  -26.7160 N   0  0  0  0  0  0  0  0  0  0  0  0
  -15.2910  -13.0320  -26.3590 C   0  0  0  0  0  0  0  0  0  0  0  0
  -15.7540  -13.9000  -25.3640 C   0  0  0  0  0  0  0  0  0  0  0  0
  -16.1260  -16.2700  -24.4870 C   0  0  0  0  0  0  0  0  0  0  0  0
  -15.7150  -17.5220  -24.7500 N   0  0  0  0  0  0  0  0  0  0  0  0
  -16.8750  -16.0690  -23.5300 O   0  0  0  0  0  0  0  0  0  0  0  0
  -14.9710  -17.9800  -25.8100 C   0  0  0  0  0  0  0  0  0  0  0  0
  -16.4640  -13.2700  -23.9440 Cl  0  0  0  0  0  0  0  0  0  0  0  0
  -14.6710  -19.4080  -25.8600 C   0  0  0  0  0  0  0  0  0  0  0  0
  -14.9880  -20.1260  -27.0150 C   0  0  0  0  0  0  0  0  0  0  0  0
  -14.7170  -21.4780  -27.0850 C   0  0  0  0  0  0  0  0  0  0  0  0
  -14.1380  -22.1280  -25.9970 C   0  0  0  0  0  0  0  0  0  0  0  0
  -13.8080  -21.4130  -24.8450 C   0  0  0  0  0  0  0  0  0  0  0  0
  -14.0800  -20.0620  -24.7700 C   0  0  0  0  0  0  0  0  0  0  0  0
  -13.7930  -23.6000  -26.0950 C   0  0  0  0  0  0  0  0  0  0  0  0
  -12.7560  -23.8750  -27.1570 C   0  0  0  0  0  0  0  0  0  0  0  0
  -15.0810  -24.3930  -26.2480 C   0  0  0  0  0  0  0  0  0  0  0  0
  -13.1120  -24.1090  -24.9890 O   0  0  0  0  0  0  0  0  0  0  0  0
  -13.9696  -15.3199  -28.5287 H   0  0  0  0  0  0  0  0  0  0  0  0
  -14.3299  -12.8556  -28.2909 H   0  0  0  0  0  0  0  0  0  0  0  0
  -15.4202  -11.9458  -26.2427 H   0  0  0  0  0  0  0  0  0  0  0  0
  -15.9963  -18.2359  -24.0628 H   0  0  0  0  0  0  0  0  0  0  0  0
  -15.4540  -19.6140  -27.8698 H   0  0  0  0  0  0  0  0  0  0  0  0
  -14.9579  -22.0413  -27.9986 H   0  0  0  0  0  0  0  0  0  0  0  0
  -13.3312  -21.9261  -23.9968 H   0  0  0  0  0  0  0  0  0  0  0  0
  -13.8336  -19.4998  -23.8572 H   0  0  0  0  0  0  0  0  0  0  0  0
  -11.7989  -24.1288  -26.6779 H   0  0  0  0  0  0  0  0  0  0  0  0
  -13.0870  -24.7164  -27.7835 H   0  0  0  0  0  0  0  0  0  0  0  0
  -12.6265  -22.9801  -27.7835 H   0  0  0  0  0  0  0  0  0  0  0  0
  -15.4805  -24.6390  -25.2531 H   0  0  0  0  0  0  0  0  0  0  0  0
  -15.8181  -23.7921  -26.8008 H   0  0  0  0  0  0  0  0  0  0  0  0
  -14.8763  -25.3217  -26.8008 H   0  0  0  0  0  0  0  0  0  0  0  0
  -13.5436  -23.7864  -24.1585 H   0  0  0  0  0  0  0  0  0  0  0  0
  1  3  2  0
  1  2  1  0
  2  4  2  0
  2  5  1  0
  3  6  1  0
  4  7  1  0
  4  8  1  0
  5 11  2  0
  6  7  2  0
  7 12  1  0
  8 10  2  0
  8  9  1  0
  9 11  1  0
 11 13  1  0
 13 18  1  0
 13 14  2  0
 14 15  1  0
 15 16  2  0
 16 17  1  0
 16 19  1  0
 17 18  2  0
 19 22  1  0
 19 20  1  0
 19 21  1  0
  1 23  1  0
  3 24  1  0
  6 25  1  0
  9 26  1  0
 14 27  1  0
 15 28  1  0
 17 29  1  0
 18 30  1  0
 20 31  1  0
 20 32  1  0
 20 33  1  0
 21 34  1  0
 21 35  1  0
 21 36  1  0
 22 37  1  0
M  END
>  <s_m_entry_id>  (8) 
2335

>  <MODEL>  (8) 
1

>  <REMARK>  (8) 
 VINA RESULT:    -9.791      0.000      0.000
 INTER + INTRA:         -11.675
 INTER:                 -11.222
 INTRA:                  -0.454
 UNBOUND:                -0.454
  Name = 5c
  5 active torsions:
  status: ('A' for Active; 'I' for Inactive)
    1  A    between atoms: C_11  and  C_12
    2  A    between atoms: C_15  and  C_18
    3  A    between atoms: C_18  and  O_19
    4  A    between atoms: C_18  and  C_20
    5  A    between atoms: C_18  and  C_21
                            x       y       z     vdW  Elec       q    Type
                         _______ _______ _______ _____ _____    ______ ____

>  <TORSDO>  (8) 
F 3

>  <s_m_Source_Path>  (8) 
/projects/mai/users/kmzp800_harry/pmx_colab/docking_jobs/tnks2/vina_prep/output

>  <s_m_Source_File>  (8) 
tnks_naive_vina.sdf

>  <i_m_Source_File_Index>  (8) 
8

$$$$
8a
     RDKit          3D

 44 47  0  0  1  0  0  0  0  0999 V2000
  -15.0140  -19.3470  -25.7500 C   0  0  0  0  0  0  0  0  0  0  0  0
  -14.9500  -19.9440  -27.0180 C   0  0  0  0  0  0  0  0  0  0  0  0
  -14.8030  -21.3200  -27.1560 C   0  0  0  0  0  0  0  0  0  0  0  0
  -14.7050  -22.1400  -26.0290 C   0  0  0  0  0  0  0  0  0  0  0  0
  -14.7510  -21.5510  -24.7620 C   0  0  0  0  0  0  0  0  0  0  0  0
  -14.9100  -20.1730  -24.6210 C   0  0  0  0  0  0  0  0  0  0  0  0
  -14.4910  -14.8290  -27.5050 C   0  0  0  0  0  0  0  0  0  0  0  0
  -14.9730  -15.6620  -26.4780 C   0  0  0  0  0  0  0  0  0  0  0  0
  -14.5910  -13.4440  -27.3660 C   0  0  0  0  0  0  0  0  0  0  0  0
  -15.6030  -15.0940  -25.3610 C   0  0  0  0  0  0  0  0  0  0  0  0
  -14.8120  -17.0580  -26.5660 N   0  0  0  0  0  0  0  0  0  0  0  0
  -15.1910  -12.8840  -26.2410 C   0  0  0  0  0  0  0  0  0  0  0  0
  -15.7140  -13.7040  -25.2370 C   0  0  0  0  0  0  0  0  0  0  0  0
  -16.1660  -16.0250  -24.3070 C   0  0  0  0  0  0  0  0  0  0  0  0
  -15.8370  -17.3260  -24.5440 N   0  0  0  0  0  0  0  0  0  0  0  0
  -16.8690  -15.6930  -23.3520 O   0  0  0  0  0  0  0  0  0  0  0  0
  -15.1970  -17.8750  -25.6410 C   0  0  0  0  0  0  0  0  0  0  0  0
  -15.2640  -11.5380  -26.1420 F   0  0  0  0  0  0  0  0  0  0  0  0
  -14.6570  -23.5140  -26.1510 N   0  0  0  0  0  0  0  0  0  0  0  0
  -15.7330  -23.9960  -27.1300 C   0  0  0  0  0  0  0  0  0  0  0  0
  -15.7270  -25.5230  -27.2650 C   0  0  0  0  0  0  0  0  0  0  0  0
  -14.4070  -25.9130  -27.9310 N   0  0  0  0  0  0  0  0  0  0  0  0
  -13.2500  -25.5880  -26.9830 C   0  0  0  0  0  0  0  0  0  0  0  0
  -13.2760  -24.0880  -26.5450 C   0  0  0  0  0  0  0  0  0  0  0  0
  -14.4070  -27.4170  -28.3080 C   0  0  0  0  0  0  0  0  0  0  0  0
  -15.0171  -19.3138  -27.9171 H   0  0  0  0  0  0  0  0  0  0  0  0
  -14.7636  -21.7664  -28.1606 H   0  0  0  0  0  0  0  0  0  0  0  0
  -14.6607  -22.1822  -23.8656 H   0  0  0  0  0  0  0  0  0  0  0  0
  -14.9543  -19.7296  -23.6153 H   0  0  0  0  0  0  0  0  0  0  0  0
  -14.0399  -15.2654  -28.4084 H   0  0  0  0  0  0  0  0  0  0  0  0
  -14.1917  -12.7878  -28.1533 H   0  0  0  0  0  0  0  0  0  0  0  0
  -16.2075  -13.2618  -24.3589 H   0  0  0  0  0  0  0  0  0  0  0  0
  -16.1012  -17.9926  -23.8045 H   0  0  0  0  0  0  0  0  0  0  0  0
  -16.7191  -23.6735  -26.7644 H   0  0  0  0  0  0  0  0  0  0  0  0
  -15.5200  -23.5616  -28.1179 H   0  0  0  0  0  0  0  0  0  0  0  0
  -15.8001  -25.9894  -26.2715 H   0  0  0  0  0  0  0  0  0  0  0  0
  -16.5831  -25.8653  -27.8650 H   0  0  0  0  0  0  0  0  0  0  0  0
  -13.3307  -26.2234  -26.0887 H   0  0  0  0  0  0  0  0  0  0  0  0
  -12.3047  -25.7777  -27.5126 H   0  0  0  0  0  0  0  0  0  0  0  0
  -12.8897  -23.4876  -27.3818 H   0  0  0  0  0  0  0  0  0  0  0  0
  -12.6657  -24.0382  -25.6312 H   0  0  0  0  0  0  0  0  0  0  0  0
  -13.3699  -27.7727  -28.3972 H   0  0  0  0  0  0  0  0  0  0  0  0
  -14.9255  -27.9910  -27.5260 H   0  0  0  0  0  0  0  0  0  0  0  0
  -14.9255  -27.5543  -29.2683 H   0  0  0  0  0  0  0  0  0  0  0  0
  1 17  1  0
  1  6  1  0
  1  2  2  0
  2  3  1  0
  3  4  2  0
  4  5  1  0
  4 19  1  0
  5  6  2  0
  7  9  2  0
  7  8  1  0
  8 10  2  0
  8 11  1  0
  9 12  1  0
 10 13  1  0
 10 14  1  0
 11 17  2  0
 12 18  1  0
 12 13  2  0
 14 16  2  0
 14 15  1  0
 15 17  1  0
 19 20  1  0
 19 24  1  0
 20 21  1  0
 21 22  1  0
 22 23  1  0
 22 25  1  0
 23 24  1  0
  2 26  1  0
  3 27  1  0
  5 28  1  0
  6 29  1  0
  7 30  1  0
  9 31  1  0
 13 32  1  0
 15 33  1  0
 20 34  1  0
 20 35  1  0
 21 36  1  0
 21 37  1  0
 23 38  1  0
 23 39  1  0
 24 40  1  0
 24 41  1  0
 25 42  1  0
 25 43  1  0
 25 44  1  0
M  END
>  <s_m_entry_id>  (9) 
2336

>  <MODEL>  (9) 
1

>  <REMARK>  (9) 
 VINA RESULT:   -11.655      0.000      0.000
 INTER + INTRA:         -13.401
 INTER:                 -13.018
 INTRA:                  -0.383
 UNBOUND:                -0.383
  Name = 8a
  3 active torsions:
  status: ('A' for Active; 'I' for Inactive)
    1  A    between atoms: C_11  and  C_12
    2  A    between atoms: C_15  and  N_19
    3  A    between atoms: N_22  and  C_25
                            x       y       z     vdW  Elec       q    Type
                         _______ _______ _______ _____ _____    ______ ____

>  <TORSDO>  (9) 
F 2

>  <s_m_Source_Path>  (9) 
/projects/mai/users/kmzp800_harry/pmx_colab/docking_jobs/tnks2/vina_prep/output

>  <s_m_Source_File>  (9) 
tnks_naive_vina.sdf

>  <i_m_Source_File_Index>  (9) 
9

$$$$
5m
     RDKit          3D

 40 42  0  0  1  0  0  0  0  0999 V2000
  -14.6860  -16.7380  -26.5620 N   0  0  0  0  0  0  0  0  0  0  0  0
  -14.9740  -15.3730  -26.4880 C   0  0  0  0  0  0  0  0  0  0  0  0
  -15.7330  -14.8710  -25.4210 C   0  0  0  0  0  0  0  0  0  0  0  0
  -15.4530  -12.6600  -26.2930 C   0  0  0  0  0  0  0  0  0  0  0  0
  -14.7140  -13.1450  -27.3650 C   0  0  0  0  0  0  0  0  0  0  0  0
  -15.9750  -13.5030  -25.3170 C   0  0  0  0  0  0  0  0  0  0  0  0
  -14.4880  -14.5130  -27.4860 C   0  0  0  0  0  0  0  0  0  0  0  0
  -16.2980  -15.8460  -24.4090 C   0  0  0  0  0  0  0  0  0  0  0  0
  -15.9030  -17.1240  -24.6650 N   0  0  0  0  0  0  0  0  0  0  0  0
  -15.1090  -17.5900  -25.6960 C   0  0  0  0  0  0  0  0  0  0  0  0
  -17.0560  -15.5720  -23.4770 O   0  0  0  0  0  0  0  0  0  0  0  0
  -13.7170  -15.0070  -28.6990 C   0  0  0  0  0  0  0  0  0  0  0  0
  -15.6880  -11.3520  -26.2320 F   0  0  0  0  0  0  0  0  0  0  0  0
  -14.7970  -19.0240  -25.8220 C   0  0  0  0  0  0  0  0  0  0  0  0
  -14.2840  -19.7070  -24.7100 C   0  0  0  0  0  0  0  0  0  0  0  0
  -15.0050  -19.7180  -27.0190 C   0  0  0  0  0  0  0  0  0  0  0  0
  -13.9900  -21.0540  -24.7880 C   0  0  0  0  0  0  0  0  0  0  0  0
  -14.7270  -21.0770  -27.0880 C   0  0  0  0  0  0  0  0  0  0  0  0
  -14.2160  -21.7520  -25.9720 C   0  0  0  0  0  0  0  0  0  0  0  0
  -14.0170  -23.2660  -26.0010 C   0  0  0  0  0  0  0  0  0  0  0  0
  -13.1100  -23.7240  -27.1410 C   0  0  0  0  0  0  0  0  0  0  0  0
  -15.4050  -23.9060  -26.0330 C   0  0  0  0  0  0  0  0  0  0  0  0
  -13.3470  -23.7710  -24.8650 O   0  0  0  0  0  0  0  0  0  0  0  0
  -14.3090  -12.4502  -28.1155 H   0  0  0  0  0  0  0  0  0  0  0  0
  -16.5656  -13.0984  -24.4819 H   0  0  0  0  0  0  0  0  0  0  0  0
  -16.2404  -17.8373  -24.0030 H   0  0  0  0  0  0  0  0  0  0  0  0
  -12.8341  -15.5727  -28.3668 H   0  0  0  0  0  0  0  0  0  0  0  0
  -14.3640  -15.6591  -29.3041 H   0  0  0  0  0  0  0  0  0  0  0  0
  -13.3949  -14.1467  -29.3041 H   0  0  0  0  0  0  0  0  0  0  0  0
  -14.1144  -19.1653  -23.7678 H   0  0  0  0  0  0  0  0  0  0  0  0
  -15.3880  -19.1883  -27.9037 H   0  0  0  0  0  0  0  0  0  0  0  0
  -13.5764  -21.5769  -23.9131 H   0  0  0  0  0  0  0  0  0  0  0  0
  -14.9090  -21.6260  -28.0237 H   0  0  0  0  0  0  0  0  0  0  0  0
  -12.2011  -24.1829  -26.7247 H   0  0  0  0  0  0  0  0  0  0  0  0
  -13.6426  -24.4612  -27.7597 H   0  0  0  0  0  0  0  0  0  0  0  0
  -12.8329  -22.8578  -27.7597 H   0  0  0  0  0  0  0  0  0  0  0  0
  -15.7576  -24.0686  -25.0038 H   0  0  0  0  0  0  0  0  0  0  0  0
  -16.1041  -23.2393  -26.5591 H   0  0  0  0  0  0  0  0  0  0  0  0
  -15.3520  -24.8706  -26.5591 H   0  0  0  0  0  0  0  0  0  0  0  0
  -13.7900  -23.4371  -24.0450 H   0  0  0  0  0  0  0  0  0  0  0  0
  1  2  1  0
  1 10  2  0
  2  3  2  0
  2  7  1  0
  3  6  1  0
  3  8  1  0
  4 13  1  0
  4  6  2  0
  4  5  1  0
  5  7  2  0
  7 12  1  0
  8 11  2  0
  8  9  1  0
  9 10  1  0
 10 14  1  0
 14 15  2  0
 14 16  1  0
 15 17  1  0
 16 18  2  0
 17 19  2  0
 18 19  1  0
 19 20  1  0
 20 23  1  0
 20 21  1  0
 20 22  1  0
  5 24  1  0
  6 25  1  0
  9 26  1  0
 12 27  1  0
 12 28  1  0
 12 29  1  0
 15 30  1  0
 16 31  1  0
 17 32  1  0
 18 33  1  0
 21 34  1  0
 21 35  1  0
 21 36  1  0
 22 37  1  0
 22 38  1  0
 22 39  1  0
 23 40  1  0
M  END
>  <s_m_entry_id>  (10) 
2337

>  <MODEL>  (10) 
1

>  <REMARK>  (10) 
 VINA RESULT:   -10.682      0.000      0.000
 INTER + INTRA:         -12.705
 INTER:                 -12.243
 INTRA:                  -0.462
 UNBOUND:                -0.462
  Name = 5m
  6 active torsions:
  status: ('A' for Active; 'I' for Inactive)
    1  A    between atoms: C_1  and  C_17
    2  A    between atoms: C_7  and  C_8
    3  A    between atoms: C_8  and  C_19
    4  A    between atoms: C_8  and  O_20
    5  A    between atoms: C_8  and  C_21
    6  A    between atoms: C_14  and  C_22
                            x       y       z     vdW  Elec       q    Type
                         _______ _______ _______ _____ _____    ______ ____

>  <TORSDO>  (10) 
F 3

>  <s_m_Source_Path>  (10) 
/projects/mai/users/kmzp800_harry/pmx_colab/docking_jobs/tnks2/vina_prep/output

>  <s_m_Source_File>  (10) 
tnks_naive_vina.sdf

>  <i_m_Source_File_Index>  (10) 
10

$$$$
5n
     RDKit          3D

 44 46  0  0  1  0  0  0  0  0999 V2000
  -14.8260  -19.3450  -25.7960 C   0  0  0  0  0  0  0  0  0  0  0  0
  -14.3810  -20.0510  -24.6720 C   0  0  0  0  0  0  0  0  0  0  0  0
  -14.9910  -20.0410  -27.0040 C   0  0  0  0  0  0  0  0  0  0  0  0
  -14.0820  -21.4080  -24.7670 C   0  0  0  0  0  0  0  0  0  0  0  0
  -14.7040  -21.3990  -27.0930 C   0  0  0  0  0  0  0  0  0  0  0  0
  -14.2420  -22.1020  -25.9770 C   0  0  0  0  0  0  0  0  0  0  0  0
  -15.0980  -17.8880  -25.7420 C   0  0  0  0  0  0  0  0  0  0  0  0
  -15.8550  -17.3620  -24.7060 N   0  0  0  0  0  0  0  0  0  0  0  0
  -16.2040  -16.0670  -24.4720 C   0  0  0  0  0  0  0  0  0  0  0  0
  -14.6700  -17.0690  -26.6460 N   0  0  0  0  0  0  0  0  0  0  0  0
  -14.9170  -15.6910  -26.5850 C   0  0  0  0  0  0  0  0  0  0  0  0
  -15.6520  -15.1330  -25.5310 C   0  0  0  0  0  0  0  0  0  0  0  0
  -15.8610  -13.7520  -25.4690 C   0  0  0  0  0  0  0  0  0  0  0  0
  -15.3310  -12.9370  -26.4740 C   0  0  0  0  0  0  0  0  0  0  0  0
  -14.6170  -13.4970  -27.5350 C   0  0  0  0  0  0  0  0  0  0  0  0
  -14.4110  -14.8750  -27.5980 C   0  0  0  0  0  0  0  0  0  0  0  0
  -16.9070  -15.7380  -23.5130 O   0  0  0  0  0  0  0  0  0  0  0  0
  -15.5140  -11.5980  -26.4320 F   0  0  0  0  0  0  0  0  0  0  0  0
  -13.8620  -23.6010  -26.0710 C   0  0  0  0  0  0  0  0  0  0  0  0
  -13.0940  -23.9940  -24.7940 C   0  0  0  0  0  0  0  0  0  0  0  0
  -13.0220  -23.7910  -27.3470 C   0  0  0  0  0  0  0  0  0  0  0  0
  -15.0560  -24.3930  -26.2490 O   0  0  0  0  0  0  0  0  0  0  0  0
  -15.3810  -25.0610  -27.4810 C   0  0  0  0  0  0  0  0  0  0  0  0
  -16.7680  -24.7640  -28.1060 C   0  0  0  0  0  0  0  0  0  0  0  0
  -16.8910  -25.1250  -29.4690 O   0  0  0  0  0  0  0  0  0  0  0  0
  -14.2669  -19.5315  -23.7091 H   0  0  0  0  0  0  0  0  0  0  0  0
  -15.3527  -19.5043  -27.8934 H   0  0  0  0  0  0  0  0  0  0  0  0
  -13.7146  -21.9446  -23.8798 H   0  0  0  0  0  0  0  0  0  0  0  0
  -14.8418  -21.9240  -28.0497 H   0  0  0  0  0  0  0  0  0  0  0  0
  -16.2013  -18.0459  -24.0181 H   0  0  0  0  0  0  0  0  0  0  0  0
  -16.4351  -13.3122  -24.6401 H   0  0  0  0  0  0  0  0  0  0  0  0
  -14.2144  -12.8474  -28.3262 H   0  0  0  0  0  0  0  0  0  0  0  0
  -13.8546  -15.3149  -28.4388 H   0  0  0  0  0  0  0  0  0  0  0  0
  -13.6763  -23.6960  -23.9096 H   0  0  0  0  0  0  0  0  0  0  0  0
  -12.9379  -25.0828  -24.7805 H   0  0  0  0  0  0  0  0  0  0  0  0
  -12.1196  -23.4837  -24.7805 H   0  0  0  0  0  0  0  0  0  0  0  0
  -11.9835  -24.0259  -27.0707 H   0  0  0  0  0  0  0  0  0  0  0  0
  -13.4393  -24.6174  -27.9410 H   0  0  0  0  0  0  0  0  0  0  0  0
  -13.0430  -22.8654  -27.9410 H   0  0  0  0  0  0  0  0  0  0  0  0
  -14.6177  -24.7789  -28.2212 H   0  0  0  0  0  0  0  0  0  0  0  0
  -15.4102  -26.1300  -27.2235 H   0  0  0  0  0  0  0  0  0  0  0  0
  -17.5272  -25.3182  -27.5347 H   0  0  0  0  0  0  0  0  0  0  0  0
  -16.9031  -23.6733  -28.0596 H   0  0  0  0  0  0  0  0  0  0  0  0
  -17.2096  -26.0600  -29.5353 H   0  0  0  0  0  0  0  0  0  0  0  0
  1  7  1  0
  1  2  2  0
  1  3  1  0
  2  4  1  0
  3  5  2  0
  4  6  2  0
  5  6  1  0
  6 19  1  0
  7  8  1  0
  7 10  2  0
  8  9  1  0
  9 17  2  0
  9 12  1  0
 10 11  1  0
 11 12  2  0
 11 16  1  0
 12 13  1  0
 13 14  2  0
 14 18  1  0
 14 15  1  0
 15 16  2  0
 19 20  1  0
 19 21  1  0
 19 22  1  0
 22 23  1  0
 23 24  1  0
 24 25  1  0
  2 26  1  0
  3 27  1  0
  4 28  1  0
  5 29  1  0
  8 30  1  0
 13 31  1  0
 15 32  1  0
 16 33  1  0
 20 34  1  0
 20 35  1  0
 20 36  1  0
 21 37  1  0
 21 38  1  0
 21 39  1  0
 23 40  1  0
 23 41  1  0
 24 42  1  0
 24 43  1  0
 25 44  1  0
M  END
>  <s_m_entry_id>  (11) 
2338

>  <MODEL>  (11) 
1

>  <REMARK>  (11) 
 VINA RESULT:   -10.423      0.000      0.000
 INTER + INTRA:         -14.391
 INTER:                 -13.775
 INTRA:                  -0.617
 UNBOUND:                -0.617
  Name = 5n
  8 active torsions:
  status: ('A' for Active; 'I' for Inactive)
    1  A    between atoms: C_1  and  C_4
    2  A    between atoms: C_7  and  C_18
    3  A    between atoms: C_18  and  C_19
    4  A    between atoms: C_18  and  C_20
    5  A    between atoms: C_18  and  O_21
    6  A    between atoms: O_21  and  C_23
    7  A    between atoms: C_23  and  C_24
    8  A    between atoms: C_24  and  O_25
                            x       y       z     vdW  Elec       q    Type
                         _______ _______ _______ _____ _____    ______ ____

>  <TORSDO>  (11) 
F 6

>  <s_m_Source_Path>  (11) 
/projects/mai/users/kmzp800_harry/pmx_colab/docking_jobs/tnks2/vina_prep/output

>  <s_m_Source_File>  (11) 
tnks_naive_vina.sdf

>  <i_m_Source_File_Index>  (11) 
11

$$$$
5p
     RDKit          3D

 47 49  0  0  1  0  0  0  0  0999 V2000
  -14.7790  -19.3320  -25.8160 C   0  0  0  0  0  0  0  0  0  0  0  0
  -14.2530  -20.0120  -24.7110 C   0  0  0  0  0  0  0  0  0  0  0  0
  -15.0000  -20.0480  -27.0040 C   0  0  0  0  0  0  0  0  0  0  0  0
  -13.9590  -21.3650  -24.7940 C   0  0  0  0  0  0  0  0  0  0  0  0
  -14.7340  -21.4120  -27.0750 C   0  0  0  0  0  0  0  0  0  0  0  0
  -14.2140  -22.0920  -25.9680 C   0  0  0  0  0  0  0  0  0  0  0  0
  -15.0790  -17.8840  -25.7440 C   0  0  0  0  0  0  0  0  0  0  0  0
  -15.8150  -17.3860  -24.6800 N   0  0  0  0  0  0  0  0  0  0  0  0
  -16.1610  -16.1010  -24.4030 C   0  0  0  0  0  0  0  0  0  0  0  0
  -14.6850  -17.0450  -26.6460 N   0  0  0  0  0  0  0  0  0  0  0  0
  -14.9330  -15.6700  -26.5400 C   0  0  0  0  0  0  0  0  0  0  0  0
  -15.6410  -15.1390  -25.4520 C   0  0  0  0  0  0  0  0  0  0  0  0
  -15.8450  -13.7580  -25.3520 C   0  0  0  0  0  0  0  0  0  0  0  0
  -15.3400  -12.9200  -26.3510 C   0  0  0  0  0  0  0  0  0  0  0  0
  -14.6490  -13.4540  -27.4400 C   0  0  0  0  0  0  0  0  0  0  0  0
  -14.4460  -14.8300  -27.5400 C   0  0  0  0  0  0  0  0  0  0  0  0
  -16.8370  -15.8100  -23.4140 O   0  0  0  0  0  0  0  0  0  0  0  0
  -15.5180  -11.5830  -26.2790 F   0  0  0  0  0  0  0  0  0  0  0  0
  -13.8700  -23.5990  -26.0490 C   0  0  0  0  0  0  0  0  0  0  0  0
  -13.0660  -23.9960  -24.7910 C   0  0  0  0  0  0  0  0  0  0  0  0
  -13.0830  -23.8160  -27.3460 C   0  0  0  0  0  0  0  0  0  0  0  0
  -15.0880  -24.3590  -26.1980 O   0  0  0  0  0  0  0  0  0  0  0  0
  -15.4310  -25.0570  -27.4070 C   0  0  0  0  0  0  0  0  0  0  0  0
  -16.7660  -24.6710  -28.0750 C   0  0  0  0  0  0  0  0  0  0  0  0
  -16.8950  -25.0880  -29.4280 O   0  0  0  0  0  0  0  0  0  0  0  0
  -17.2490  -26.4570  -29.5900 C   0  0  0  0  0  0  0  0  0  0  0  0
  -14.0718  -19.4699  -23.7712 H   0  0  0  0  0  0  0  0  0  0  0  0
  -15.3883  -19.5237  -27.8896 H   0  0  0  0  0  0  0  0  0  0  0  0
  -13.5187  -21.8770  -23.9257 H   0  0  0  0  0  0  0  0  0  0  0  0
  -14.9339  -21.9596  -28.0078 H   0  0  0  0  0  0  0  0  0  0  0  0
  -16.1464  -18.0889  -24.0040 H   0  0  0  0  0  0  0  0  0  0  0  0
  -16.3958  -13.3370  -24.4980 H   0  0  0  0  0  0  0  0  0  0  0  0
  -14.2625  -12.7857  -28.2236 H   0  0  0  0  0  0  0  0  0  0  0  0
  -13.9056  -15.2493  -28.4015 H   0  0  0  0  0  0  0  0  0  0  0  0
  -13.6324  -23.7163  -23.8905 H   0  0  0  0  0  0  0  0  0  0  0  0
  -12.8942  -25.0825  -24.7934 H   0  0  0  0  0  0  0  0  0  0  0  0
  -12.0989  -23.4719  -24.7934 H   0  0  0  0  0  0  0  0  0  0  0  0
  -12.0486  -24.1012  -27.1039 H   0  0  0  0  0  0  0  0  0  0  0  0
  -13.5565  -24.6171  -27.9325 H   0  0  0  0  0  0  0  0  0  0  0  0
  -13.0790  -22.8854  -27.9325 H   0  0  0  0  0  0  0  0  0  0  0  0
  -14.6282  -24.8742  -28.1365 H   0  0  0  0  0  0  0  0  0  0  0  0
  -15.5506  -26.1091  -27.1091 H   0  0  0  0  0  0  0  0  0  0  0  0
  -17.5831  -25.1267  -27.4965 H   0  0  0  0  0  0  0  0  0  0  0  0
  -16.8030  -23.5717  -28.0835 H   0  0  0  0  0  0  0  0  0  0  0  0
  -17.3697  -26.9240  -28.6014 H   0  0  0  0  0  0  0  0  0  0  0  0
  -18.1950  -26.5277  -30.1469 H   0  0  0  0  0  0  0  0  0  0  0  0
  -16.4559  -26.9774  -30.1469 H   0  0  0  0  0  0  0  0  0  0  0  0
  1  7  1  0
  1  2  2  0
  1  3  1  0
  2  4  1  0
  3  5  2  0
  4  6  2  0
  5  6  1  0
  6 19  1  0
  7  8  1  0
  7 10  2  0
  8  9  1  0
  9 17  2  0
  9 12  1  0
 10 11  1  0
 11 12  2  0
 11 16  1  0
 12 13  1  0
 13 14  2  0
 14 18  1  0
 14 15  1  0
 15 16  2  0
 19 20  1  0
 19 21  1  0
 19 22  1  0
 22 23  1  0
 23 24  1  0
 24 25  1  0
 25 26  1  0
  2 27  1  0
  3 28  1  0
  4 29  1  0
  5 30  1  0
  8 31  1  0
 13 32  1  0
 15 33  1  0
 16 34  1  0
 20 35  1  0
 20 36  1  0
 20 37  1  0
 21 38  1  0
 21 39  1  0
 21 40  1  0
 23 41  1  0
 23 42  1  0
 24 43  1  0
 24 44  1  0
 26 45  1  0
 26 46  1  0
 26 47  1  0
M  END
>  <s_m_entry_id>  (12) 
2339

>  <MODEL>  (12) 
1

>  <REMARK>  (12) 
 VINA RESULT:   -10.288      0.000      0.000
 INTER + INTRA:         -14.550
 INTER:                 -13.897
 INTRA:                  -0.653
 UNBOUND:                -0.653
  Name = 5p
  9 active torsions:
  status: ('A' for Active; 'I' for Inactive)
    1  A    between atoms: C_1  and  C_4
    2  A    between atoms: C_7  and  C_18
    3  A    between atoms: C_18  and  O_19
    4  A    between atoms: C_18  and  C_25
    5  A    between atoms: C_18  and  C_26
    6  A    between atoms: O_19  and  C_21
    7  A    between atoms: C_21  and  C_22
    8  A    between atoms: C_22  and  O_23
    9  A    between atoms: O_23  and  C_24
                            x       y       z     vdW  Elec       q    Type
                         _______ _______ _______ _____ _____    ______ ____

>  <TORSDO>  (12) 
F 6

>  <s_m_Source_Path>  (12) 
/projects/mai/users/kmzp800_harry/pmx_colab/docking_jobs/tnks2/vina_prep/output

>  <s_m_Source_File>  (12) 
tnks_naive_vina.sdf

>  <i_m_Source_File_Index>  (12) 
12

$$$$
5i
     RDKit          3D

 40 42  0  0  1  0  0  0  0  0999 V2000
  -14.6000  -14.5590  -27.3760 C   0  0  0  0  0  0  0  0  0  0  0  0
  -15.0640  -15.4790  -26.4180 C   0  0  0  0  0  0  0  0  0  0  0  0
  -14.8380  -13.1940  -27.1800 C   0  0  0  0  0  0  0  0  0  0  0  0
  -15.8230  -15.0260  -25.3310 C   0  0  0  0  0  0  0  0  0  0  0  0
  -14.7450  -16.8470  -26.5350 N   0  0  0  0  0  0  0  0  0  0  0  0
  -15.5560  -12.7530  -26.0700 C   0  0  0  0  0  0  0  0  0  0  0  0
  -16.0700  -13.6670  -25.1500 C   0  0  0  0  0  0  0  0  0  0  0  0
  -16.3570  -16.0440  -24.3510 C   0  0  0  0  0  0  0  0  0  0  0  0
  -15.8550  -17.2830  -24.5850 N   0  0  0  0  0  0  0  0  0  0  0  0
  -17.1790  -15.8240  -23.4630 O   0  0  0  0  0  0  0  0  0  0  0  0
  -15.1020  -17.7250  -25.6540 C   0  0  0  0  0  0  0  0  0  0  0  0
  -13.8060  -15.0010  -28.6000 C   0  0  0  0  0  0  0  0  0  0  0  0
  -14.7770  -19.1650  -25.7690 C   0  0  0  0  0  0  0  0  0  0  0  0
  -15.0200  -19.8290  -26.9790 C   0  0  0  0  0  0  0  0  0  0  0  0
  -14.7100  -21.1730  -27.1280 C   0  0  0  0  0  0  0  0  0  0  0  0
  -14.1450  -21.8940  -26.0760 C   0  0  0  0  0  0  0  0  0  0  0  0
  -13.9170  -21.2430  -24.8560 C   0  0  0  0  0  0  0  0  0  0  0  0
  -14.2330  -19.8940  -24.7020 C   0  0  0  0  0  0  0  0  0  0  0  0
  -13.7020  -23.3530  -26.2800 C   0  0  0  0  0  0  0  0  0  0  0  0
  -12.7580  -23.5240  -27.4710 C   0  0  0  0  0  0  0  0  0  0  0  0
  -14.9490  -24.2310  -26.3980 C   0  0  0  0  0  0  0  0  0  0  0  0
  -12.9320  -23.8780  -25.2170 O   0  0  0  0  0  0  0  0  0  0  0  0
  -14.4553  -12.4634  -27.9078 H   0  0  0  0  0  0  0  0  0  0  0  0
  -15.7187  -11.6758  -25.9181 H   0  0  0  0  0  0  0  0  0  0  0  0
  -16.6634  -13.3187  -24.2917 H   0  0  0  0  0  0  0  0  0  0  0  0
  -16.0647  -17.9905  -23.8664 H   0  0  0  0  0  0  0  0  0  0  0  0
  -12.8875  -15.5123  -28.2762 H   0  0  0  0  0  0  0  0  0  0  0  0
  -14.4157  -15.6896  -29.2035 H   0  0  0  0  0  0  0  0  0  0  0  0
  -13.5420  -14.1201  -29.2035 H   0  0  0  0  0  0  0  0  0  0  0  0
  -15.4623  -19.2773  -27.8216 H   0  0  0  0  0  0  0  0  0  0  0  0
  -14.9118  -21.6753  -28.0856 H   0  0  0  0  0  0  0  0  0  0  0  0
  -13.4849  -21.8014  -24.0125 H   0  0  0  0  0  0  0  0  0  0  0  0
  -14.0543  -19.3980  -23.7366 H   0  0  0  0  0  0  0  0  0  0  0  0
  -11.7369  -23.7090  -27.1060 H   0  0  0  0  0  0  0  0  0  0  0  0
  -13.0891  -24.3768  -28.0818 H   0  0  0  0  0  0  0  0  0  0  0  0
  -12.7689  -22.6093  -28.0818 H   0  0  0  0  0  0  0  0  0  0  0  0
  -15.3133  -24.4875  -25.3923 H   0  0  0  0  0  0  0  0  0  0  0  0
  -15.7323  -23.6841  -26.9433 H   0  0  0  0  0  0  0  0  0  0  0  0
  -14.6981  -25.1528  -26.9433 H   0  0  0  0  0  0  0  0  0  0  0  0
  -13.3321  -23.6052  -24.3535 H   0  0  0  0  0  0  0  0  0  0  0  0
  1  3  2  0
  1  2  1  0
  1 12  1  0
  2  4  2  0
  2  5  1  0
  3  6  1  0
  4  7  1  0
  4  8  1  0
  5 11  2  0
  6  7  2  0
  8 10  2  0
  8  9  1  0
  9 11  1  0
 11 13  1  0
 13 18  1  0
 13 14  2  0
 14 15  1  0
 15 16  2  0
 16 17  1  0
 16 19  1  0
 17 18  2  0
 19 22  1  0
 19 20  1  0
 19 21  1  0
  3 23  1  0
  6 24  1  0
  7 25  1  0
  9 26  1  0
 12 27  1  0
 12 28  1  0
 12 29  1  0
 14 30  1  0
 15 31  1  0
 17 32  1  0
 18 33  1  0
 20 34  1  0
 20 35  1  0
 20 36  1  0
 21 37  1  0
 21 38  1  0
 21 39  1  0
 22 40  1  0
M  END
>  <s_m_entry_id>  (13) 
2340

>  <MODEL>  (13) 
1

>  <REMARK>  (13) 
 VINA RESULT:   -11.185      0.000      0.000
 INTER + INTRA:         -13.251
 INTER:                 -12.820
 INTRA:                  -0.432
 UNBOUND:                -0.432
  Name = 5i
  6 active torsions:
  status: ('A' for Active; 'I' for Inactive)
    1  A    between atoms: C_1  and  C_22
    2  A    between atoms: C_11  and  C_12
    3  A    between atoms: C_15  and  C_18
    4  A    between atoms: C_18  and  O_19
    5  A    between atoms: C_18  and  C_20
    6  A    between atoms: C_18  and  C_21
                            x       y       z     vdW  Elec       q    Type
                         _______ _______ _______ _____ _____    ______ ____

>  <TORSDO>  (13) 
F 3

>  <s_m_Source_Path>  (13) 
/projects/mai/users/kmzp800_harry/pmx_colab/docking_jobs/tnks2/vina_prep/output

>  <s_m_Source_File>  (13) 
tnks_naive_vina.sdf

>  <i_m_Source_File_Index>  (13) 
13

$$$$
5l
     RDKit          3D

 37 39  0  0  1  0  0  0  0  0999 V2000
  -14.6660  -16.9100  -26.6410 N   0  0  0  0  0  0  0  0  0  0  0  0
  -16.1970  -16.0220  -24.4320 C   0  0  0  0  0  0  0  0  0  0  0  0
  -15.7280  -17.2730  -24.6490 N   0  0  0  0  0  0  0  0  0  0  0  0
  -15.0170  -17.7550  -25.7270 C   0  0  0  0  0  0  0  0  0  0  0  0
  -17.0040  -15.7860  -23.5350 O   0  0  0  0  0  0  0  0  0  0  0  0
  -14.9590  -15.5360  -26.5470 C   0  0  0  0  0  0  0  0  0  0  0  0
  -15.6670  -15.0370  -25.4480 C   0  0  0  0  0  0  0  0  0  0  0  0
  -15.8540  -13.6640  -25.2920 C   0  0  0  0  0  0  0  0  0  0  0  0
  -15.3710  -12.7930  -26.2680 C   0  0  0  0  0  0  0  0  0  0  0  0
  -14.7120  -13.2870  -27.3960 C   0  0  0  0  0  0  0  0  0  0  0  0
  -14.5060  -14.6600  -27.5430 C   0  0  0  0  0  0  0  0  0  0  0  0
  -13.8370  -15.1190  -28.6270 F   0  0  0  0  0  0  0  0  0  0  0  0
  -16.4690  -13.1780  -24.1930 F   0  0  0  0  0  0  0  0  0  0  0  0
  -14.7400  -19.2030  -25.8060 C   0  0  0  0  0  0  0  0  0  0  0  0
  -14.2190  -19.9170  -24.7170 C   0  0  0  0  0  0  0  0  0  0  0  0
  -15.0090  -19.8860  -26.9980 C   0  0  0  0  0  0  0  0  0  0  0  0
  -13.9380  -21.2720  -24.8360 C   0  0  0  0  0  0  0  0  0  0  0  0
  -14.7320  -21.2390  -27.1120 C   0  0  0  0  0  0  0  0  0  0  0  0
  -14.1820  -21.9400  -26.0400 C   0  0  0  0  0  0  0  0  0  0  0  0
  -13.7260  -23.3900  -26.2100 C   0  0  0  0  0  0  0  0  0  0  0  0
  -12.7850  -23.5860  -27.3990 C   0  0  0  0  0  0  0  0  0  0  0  0
  -14.9740  -24.2680  -26.2340 C   0  0  0  0  0  0  0  0  0  0  0  0
  -12.9490  -23.8890  -25.1570 O   0  0  0  0  0  0  0  0  0  0  0  0
  -15.9300  -17.9585  -23.9072 H   0  0  0  0  0  0  0  0  0  0  0  0
  -15.5101  -11.7084  -26.1486 H   0  0  0  0  0  0  0  0  0  0  0  0
  -14.3544  -12.5926  -28.1705 H   0  0  0  0  0  0  0  0  0  0  0  0
  -14.0319  -19.4011  -23.7636 H   0  0  0  0  0  0  0  0  0  0  0  0
  -15.4437  -19.3443  -27.8510 H   0  0  0  0  0  0  0  0  0  0  0  0
  -13.5216  -21.8221  -23.9793 H   0  0  0  0  0  0  0  0  0  0  0  0
  -14.9476  -21.7633  -28.0547 H   0  0  0  0  0  0  0  0  0  0  0  0
  -11.7698  -23.7975  -27.0322 H   0  0  0  0  0  0  0  0  0  0  0  0
  -13.1373  -24.4300  -28.0101 H   0  0  0  0  0  0  0  0  0  0  0  0
  -12.7710  -22.6715  -28.0101 H   0  0  0  0  0  0  0  0  0  0  0  0
  -15.2872  -24.4883  -25.2028 H   0  0  0  0  0  0  0  0  0  0  0  0
  -15.7840  -23.7397  -26.7582 H   0  0  0  0  0  0  0  0  0  0  0  0
  -14.7504  -25.2088  -26.7582 H   0  0  0  0  0  0  0  0  0  0  0  0
  -13.3564  -23.6274  -24.2935 H   0  0  0  0  0  0  0  0  0  0  0  0
  1  6  1  0
  1  4  2  0
  2  5  2  0
  2  3  1  0
  2  7  1  0
  3  4  1  0
  4 14  1  0
  6  7  2  0
  6 11  1  0
  7  8  1  0
  8 13  1  0
  8  9  2  0
  9 10  1  0
 10 11  2  0
 11 12  1  0
 14 15  2  0
 14 16  1  0
 15 17  1  0
 16 18  2  0
 17 19  2  0
 18 19  1  0
 19 20  1  0
 20 23  1  0
 20 21  1  0
 20 22  1  0
  3 24  1  0
  9 25  1  0
 10 26  1  0
 15 27  1  0
 16 28  1  0
 17 29  1  0
 18 30  1  0
 21 31  1  0
 21 32  1  0
 21 33  1  0
 22 34  1  0
 22 35  1  0
 22 36  1  0
 23 37  1  0
M  END
>  <s_m_entry_id>  (14) 
2341

>  <MODEL>  (14) 
1

>  <REMARK>  (14) 
 VINA RESULT:   -11.445      0.000      0.000
 INTER + INTRA:         -13.571
 INTER:                 -13.117
 INTRA:                  -0.453
 UNBOUND:                -0.453
  Name = 5l
  5 active torsions:
  status: ('A' for Active; 'I' for Inactive)
    1  A    between atoms: C_1  and  C_11
    2  A    between atoms: C_7  and  C_8
    3  A    between atoms: C_8  and  C_13
    4  A    between atoms: C_8  and  O_14
    5  A    between atoms: C_8  and  C_15
                            x       y       z     vdW  Elec       q    Type
                         _______ _______ _______ _____ _____    ______ ____

>  <TORSDO>  (14) 
F 3

>  <s_m_Source_Path>  (14) 
/projects/mai/users/kmzp800_harry/pmx_colab/docking_jobs/tnks2/vina_prep/output

>  <s_m_Source_File>  (14) 
tnks_naive_vina.sdf

>  <i_m_Source_File_Index>  (14) 
14

$$$$
5e
     RDKit          3D

 37 39  0  0  1  0  0  0  0  0999 V2000
  -14.3390  -15.2130  -27.6600 C   0  0  0  0  0  0  0  0  0  0  0  0
  -14.8030  -15.9900  -26.6030 C   0  0  0  0  0  0  0  0  0  0  0  0
  -14.6140  -13.8530  -27.6590 C   0  0  0  0  0  0  0  0  0  0  0  0
  -15.5610  -15.4350  -25.5630 C   0  0  0  0  0  0  0  0  0  0  0  0
  -14.4790  -17.3350  -26.6060 N   0  0  0  0  0  0  0  0  0  0  0  0
  -15.3370  -13.3070  -26.6020 C   0  0  0  0  0  0  0  0  0  0  0  0
  -15.8320  -14.0760  -25.5550 C   0  0  0  0  0  0  0  0  0  0  0  0
  -16.0750  -16.3480  -24.4720 C   0  0  0  0  0  0  0  0  0  0  0  0
  -15.6910  -17.6350  -24.6830 N   0  0  0  0  0  0  0  0  0  0  0  0
  -16.7800  -16.0180  -23.5170 O   0  0  0  0  0  0  0  0  0  0  0  0
  -14.9210  -18.1460  -25.7110 C   0  0  0  0  0  0  0  0  0  0  0  0
  -15.6060  -11.6470  -26.5810 Cl  0  0  0  0  0  0  0  0  0  0  0  0
  -14.6580  -19.5790  -25.8070 C   0  0  0  0  0  0  0  0  0  0  0  0
  -14.0980  -20.2970  -24.7460 C   0  0  0  0  0  0  0  0  0  0  0  0
  -13.8310  -21.6470  -24.9070 C   0  0  0  0  0  0  0  0  0  0  0  0
  -14.1410  -22.2910  -26.1100 C   0  0  0  0  0  0  0  0  0  0  0  0
  -14.7080  -21.5750  -27.1550 C   0  0  0  0  0  0  0  0  0  0  0  0
  -14.9760  -20.2330  -27.0040 C   0  0  0  0  0  0  0  0  0  0  0  0
  -13.7240  -23.7300  -26.3480 C   0  0  0  0  0  0  0  0  0  0  0  0
  -12.7360  -23.8800  -27.4790 C   0  0  0  0  0  0  0  0  0  0  0  0
  -15.0060  -24.5330  -26.5060 C   0  0  0  0  0  0  0  0  0  0  0  0
  -12.9650  -24.3110  -25.3190 O   0  0  0  0  0  0  0  0  0  0  0  0
  -13.7652  -15.6682  -28.4807 H   0  0  0  0  0  0  0  0  0  0  0  0
  -14.2649  -13.2139  -28.4835 H   0  0  0  0  0  0  0  0  0  0  0  0
  -16.4205  -13.6199  -24.7453 H   0  0  0  0  0  0  0  0  0  0  0  0
  -16.0166  -18.3191  -23.9852 H   0  0  0  0  0  0  0  0  0  0  0  0
  -13.8718  -19.7954  -23.7935 H   0  0  0  0  0  0  0  0  0  0  0  0
  -13.3727  -22.2157  -24.0845 H   0  0  0  0  0  0  0  0  0  0  0  0
  -14.9432  -22.0796  -28.1037 H   0  0  0  0  0  0  0  0  0  0  0  0
  -15.4421  -19.6718  -27.8273 H   0  0  0  0  0  0  0  0  0  0  0  0
  -11.7276  -24.0331  -27.0671 H   0  0  0  0  0  0  0  0  0  0  0  0
  -13.0150  -24.7461  -28.0971 H   0  0  0  0  0  0  0  0  0  0  0  0
  -12.7453  -22.9701  -28.0971 H   0  0  0  0  0  0  0  0  0  0  0  0
  -15.4064  -24.7838  -25.5126 H   0  0  0  0  0  0  0  0  0  0  0  0
  -15.7462  -23.9368  -27.0598 H   0  0  0  0  0  0  0  0  0  0  0  0
  -14.7926  -25.4591  -27.0598 H   0  0  0  0  0  0  0  0  0  0  0  0
  -13.3297  -24.0318  -24.4420 H   0  0  0  0  0  0  0  0  0  0  0  0
  1  3  2  0
  1  2  1  0
  2  4  2  0
  2  5  1  0
  3  6  1  0
  4  7  1  0
  4  8  1  0
  5 11  2  0
  6 12  1  0
  6  7  2  0
  8 10  2  0
  8  9  1  0
  9 11  1  0
 11 13  1  0
 13 14  2  0
 13 18  1  0
 14 15  1  0
 15 16  2  0
 16 17  1  0
 16 19  1  0
 17 18  2  0
 19 22  1  0
 19 20  1  0
 19 21  1  0
  1 23  1  0
  3 24  1  0
  7 25  1  0
  9 26  1  0
 14 27  1  0
 15 28  1  0
 17 29  1  0
 18 30  1  0
 20 31  1  0
 20 32  1  0
 20 33  1  0
 21 34  1  0
 21 35  1  0
 21 36  1  0
 22 37  1  0
M  END
>  <s_m_entry_id>  (15) 
2342

>  <MODEL>  (15) 
1

>  <REMARK>  (15) 
 VINA RESULT:   -10.414      0.000      0.000
 INTER + INTRA:         -12.392
 INTER:                 -11.935
 INTRA:                  -0.456
 UNBOUND:                -0.456
  Name = 5e
  5 active torsions:
  status: ('A' for Active; 'I' for Inactive)
    1  A    between atoms: C_11  and  C_12
    2  A    between atoms: C_15  and  C_18
    3  A    between atoms: C_18  and  O_19
    4  A    between atoms: C_18  and  C_21
    5  A    between atoms: C_18  and  C_22
                            x       y       z     vdW  Elec       q    Type
                         _______ _______ _______ _____ _____    ______ ____

>  <TORSDO>  (15) 
F 3

>  <s_m_Source_Path>  (15) 
/projects/mai/users/kmzp800_harry/pmx_colab/docking_jobs/tnks2/vina_prep/output

>  <s_m_Source_File>  (15) 
tnks_naive_vina.sdf

>  <i_m_Source_File_Index>  (15) 
15

$$$$
5h
     RDKit          3D

 41 43  0  0  1  0  0  0  0  0999 V2000
  -14.5850  -14.5810  -27.4650 C   0  0  0  0  0  0  0  0  0  0  0  0
  -15.0340  -15.4760  -26.4760 C   0  0  0  0  0  0  0  0  0  0  0  0
  -14.8290  -13.2070  -27.2770 C   0  0  0  0  0  0  0  0  0  0  0  0
  -15.7620  -15.0040  -25.3740 C   0  0  0  0  0  0  0  0  0  0  0  0
  -14.7370  -16.8510  -26.5840 N   0  0  0  0  0  0  0  0  0  0  0  0
  -15.5180  -12.7470  -26.1550 C   0  0  0  0  0  0  0  0  0  0  0  0
  -16.0040  -13.6420  -25.2050 C   0  0  0  0  0  0  0  0  0  0  0  0
  -16.2760  -16.0060  -24.3660 C   0  0  0  0  0  0  0  0  0  0  0  0
  -15.7900  -17.2540  -24.5970 N   0  0  0  0  0  0  0  0  0  0  0  0
  -17.0700  -15.7680  -23.4570 O   0  0  0  0  0  0  0  0  0  0  0  0
  -15.0710  -17.7160  -25.6800 C   0  0  0  0  0  0  0  0  0  0  0  0
  -14.7490  -19.1590  -25.7860 C   0  0  0  0  0  0  0  0  0  0  0  0
  -15.0330  -19.8430  -26.9770 C   0  0  0  0  0  0  0  0  0  0  0  0
  -14.7230  -21.1880  -27.1150 C   0  0  0  0  0  0  0  0  0  0  0  0
  -14.1210  -21.8920  -26.0690 C   0  0  0  0  0  0  0  0  0  0  0  0
  -13.8540  -21.2210  -24.8690 C   0  0  0  0  0  0  0  0  0  0  0  0
  -14.1690  -19.8710  -24.7260 C   0  0  0  0  0  0  0  0  0  0  0  0
  -13.6750  -23.3510  -26.2720 C   0  0  0  0  0  0  0  0  0  0  0  0
  -12.7550  -23.5370  -27.4780 C   0  0  0  0  0  0  0  0  0  0  0  0
  -14.9200  -24.2360  -26.3540 C   0  0  0  0  0  0  0  0  0  0  0  0
  -12.8830  -23.8680  -25.2230 O   0  0  0  0  0  0  0  0  0  0  0  0
  -13.8830  -15.0800  -28.5520 O   0  0  0  0  0  0  0  0  0  0  0  0
  -13.4810  -14.1920  -29.5930 C   0  0  0  0  0  0  0  0  0  0  0  0
  -14.4708  -12.4857  -28.0263 H   0  0  0  0  0  0  0  0  0  0  0  0
  -15.6790  -11.6674  -26.0192 H   0  0  0  0  0  0  0  0  0  0  0  0
  -16.5703  -13.2793  -24.3345 H   0  0  0  0  0  0  0  0  0  0  0  0
  -15.9851  -17.9500  -23.8632 H   0  0  0  0  0  0  0  0  0  0  0  0
  -15.5074  -19.3064  -27.8119 H   0  0  0  0  0  0  0  0  0  0  0  0
  -14.9535  -21.7057  -28.0578 H   0  0  0  0  0  0  0  0  0  0  0  0
  -13.3915  -21.7644  -24.0319 H   0  0  0  0  0  0  0  0  0  0  0  0
  -13.9611  -19.3599  -23.7744 H   0  0  0  0  0  0  0  0  0  0  0  0
  -11.7321  -23.7438  -27.1304 H   0  0  0  0  0  0  0  0  0  0  0  0
  -13.1133  -24.3809  -28.0858 H   0  0  0  0  0  0  0  0  0  0  0  0
  -12.7574  -22.6202  -28.0858 H   0  0  0  0  0  0  0  0  0  0  0  0
  -15.2637  -24.4803  -25.3381 H   0  0  0  0  0  0  0  0  0  0  0  0
  -15.7161  -23.7000  -26.8915 H   0  0  0  0  0  0  0  0  0  0  0  0
  -14.6754  -25.1641  -26.8915 H   0  0  0  0  0  0  0  0  0  0  0  0
  -13.2784  -23.6099  -24.3529 H   0  0  0  0  0  0  0  0  0  0  0  0
  -13.0654  -13.2740  -29.1518 H   0  0  0  0  0  0  0  0  0  0  0  0
  -12.7155  -14.6789  -30.2151 H   0  0  0  0  0  0  0  0  0  0  0  0
  -14.3520  -13.9381  -30.2151 H   0  0  0  0  0  0  0  0  0  0  0  0
  1  3  2  0
  1  2  1  0
  1 22  1  0
  2  4  2  0
  2  5  1  0
  3  6  1  0
  4  7  1  0
  4  8  1  0
  5 11  2  0
  6  7  2  0
  8 10  2  0
  8  9  1  0
  9 11  1  0
 11 12  1  0
 12 17  1  0
 12 13  2  0
 13 14  1  0
 14 15  2  0
 15 16  1  0
 15 18  1  0
 16 17  2  0
 18 21  1  0
 18 19  1  0
 18 20  1  0
 22 23  1  0
  3 24  1  0
  6 25  1  0
  7 26  1  0
  9 27  1  0
 13 28  1  0
 14 29  1  0
 16 30  1  0
 17 31  1  0
 19 32  1  0
 19 33  1  0
 19 34  1  0
 20 35  1  0
 20 36  1  0
 20 37  1  0
 21 38  1  0
 23 39  1  0
 23 40  1  0
 23 41  1  0
M  END
>  <s_m_entry_id>  (16) 
2343

>  <MODEL>  (16) 
1

>  <REMARK>  (16) 
 VINA RESULT:   -10.962      0.000      0.000
 INTER + INTRA:         -13.704
 INTER:                 -13.205
 INTRA:                  -0.500
 UNBOUND:                -0.500
  Name = 5h
  7 active torsions:
  status: ('A' for Active; 'I' for Inactive)
    1  A    between atoms: C_1  and  O_22
    2  A    between atoms: C_11  and  C_12
    3  A    between atoms: C_15  and  C_18
    4  A    between atoms: C_18  and  O_19
    5  A    between atoms: C_18  and  C_20
    6  A    between atoms: C_18  and  C_21
    7  A    between atoms: O_22  and  C_23
                            x       y       z     vdW  Elec       q    Type
                         _______ _______ _______ _____ _____    ______ ____

>  <TORSDO>  (16) 
F 4

>  <s_m_Source_Path>  (16) 
/projects/mai/users/kmzp800_harry/pmx_colab/docking_jobs/tnks2/vina_prep/output

>  <s_m_Source_File>  (16) 
tnks_naive_vina.sdf

>  <i_m_Source_File_Index>  (16) 
16

$$$$
8c
     RDKit          3D

 42 45  0  0  1  0  0  0  0  0999 V2000
  -14.5010  -14.8640  -27.4290 C   0  0  0  0  0  0  0  0  0  0  0  0
  -14.9800  -15.6920  -26.4040 C   0  0  0  0  0  0  0  0  0  0  0  0
  -14.6590  -13.4820  -27.3220 C   0  0  0  0  0  0  0  0  0  0  0  0
  -15.6390  -15.1300  -25.3010 C   0  0  0  0  0  0  0  0  0  0  0  0
  -14.7900  -17.0840  -26.4860 N   0  0  0  0  0  0  0  0  0  0  0  0
  -15.2990  -12.9250  -26.2120 C   0  0  0  0  0  0  0  0  0  0  0  0
  -15.7990  -13.7450  -25.1990 C   0  0  0  0  0  0  0  0  0  0  0  0
  -16.1800  -16.0630  -24.2370 C   0  0  0  0  0  0  0  0  0  0  0  0
  -15.8670  -17.3640  -24.4900 N   0  0  0  0  0  0  0  0  0  0  0  0
  -16.8560  -15.7330  -23.2620 O   0  0  0  0  0  0  0  0  0  0  0  0
  -15.2090  -17.9040  -25.5790 C   0  0  0  0  0  0  0  0  0  0  0  0
  -13.8690  -15.3800  -28.5100 F   0  0  0  0  0  0  0  0  0  0  0  0
  -15.4420  -11.5840  -26.1250 F   0  0  0  0  0  0  0  0  0  0  0  0
  -15.0480  -19.3740  -25.7000 C   0  0  0  0  0  0  0  0  0  0  0  0
  -14.9790  -19.9520  -26.9740 C   0  0  0  0  0  0  0  0  0  0  0  0
  -14.8450  -21.3240  -27.1300 C   0  0  0  0  0  0  0  0  0  0  0  0
  -14.7610  -22.1610  -26.0130 C   0  0  0  0  0  0  0  0  0  0  0  0
  -14.8220  -21.5930  -24.7370 C   0  0  0  0  0  0  0  0  0  0  0  0
  -14.9780  -20.2160  -24.5790 C   0  0  0  0  0  0  0  0  0  0  0  0
  -14.6700  -23.6720  -26.1760 C   0  0  0  0  0  0  0  0  0  0  0  0
  -13.2960  -24.0740  -26.7260 C   0  0  0  0  0  0  0  0  0  0  0  0
  -13.2390  -25.5860  -27.0100 C   0  0  0  0  0  0  0  0  0  0  0  0
  -14.2910  -25.9580  -27.9560 N   0  0  0  0  0  0  0  0  0  0  0  0
  -15.6100  -25.6860  -27.3850 C   0  0  0  0  0  0  0  0  0  0  0  0
  -15.7700  -24.1790  -27.1180 C   0  0  0  0  0  0  0  0  0  0  0  0
  -14.2767  -12.8258  -28.1178 H   0  0  0  0  0  0  0  0  0  0  0  0
  -16.3128  -13.3066  -24.3308 H   0  0  0  0  0  0  0  0  0  0  0  0
  -16.1614  -18.0392  -23.7700 H   0  0  0  0  0  0  0  0  0  0  0  0
  -15.0319  -19.3083  -27.8644 H   0  0  0  0  0  0  0  0  0  0  0  0
  -14.8045  -21.7569  -28.1404 H   0  0  0  0  0  0  0  0  0  0  0  0
  -14.7463  -22.2381  -23.8493 H   0  0  0  0  0  0  0  0  0  0  0  0
  -15.0467  -19.7867  -23.5686 H   0  0  0  0  0  0  0  0  0  0  0  0
  -14.8065  -24.1298  -25.1852 H   0  0  0  0  0  0  0  0  0  0  0  0
  -13.1072  -23.5247  -27.6602 H   0  0  0  0  0  0  0  0  0  0  0  0
  -12.5311  -23.8284  -25.9746 H   0  0  0  0  0  0  0  0  0  0  0  0
  -12.2580  -25.8394  -27.4382 H   0  0  0  0  0  0  0  0  0  0  0  0
  -13.3890  -26.1358  -26.0691 H   0  0  0  0  0  0  0  0  0  0  0  0
  -14.1770  -25.4123  -28.8221 H   0  0  0  0  0  0  0  0  0  0  0  0
  -16.3869  -26.0149  -28.0908 H   0  0  0  0  0  0  0  0  0  0  0  0
  -15.7111  -26.2326  -26.4358 H   0  0  0  0  0  0  0  0  0  0  0  0
  -16.7519  -23.9969  -26.6567 H   0  0  0  0  0  0  0  0  0  0  0  0
  -15.6902  -23.6414  -28.0743 H   0  0  0  0  0  0  0  0  0  0  0  0
  1  3  2  0
  1  2  1  0
  1 12  1  0
  2  4  2  0
  2  5  1  0
  3  6  1  0
  4  7  1  0
  4  8  1  0
  5 11  2  0
  6 13  1  0
  6  7  2  0
  8 10  2  0
  8  9  1  0
  9 11  1  0
 11 14  1  0
 14 19  1  0
 14 15  2  0
 15 16  1  0
 16 17  2  0
 17 18  1  0
 17 20  1  0
 18 19  2  0
 20 21  1  0
 20 25  1  0
 21 22  1  0
 22 23  1  0
 23 24  1  0
 24 25  1  0
  3 26  1  0
  7 27  1  0
  9 28  1  0
 15 29  1  0
 16 30  1  0
 18 31  1  0
 19 32  1  0
 20 33  1  0
 21 34  1  0
 21 35  1  0
 22 36  1  0
 22 37  1  0
 23 38  1  0
 24 39  1  0
 24 40  1  0
 25 41  1  0
 25 42  1  0
M  END
>  <s_m_entry_id>  (17) 
2344

>  <MODEL>  (17) 
1

>  <REMARK>  (17) 
 VINA RESULT:   -12.456      0.000      0.000
 INTER + INTRA:         -14.400
 INTER:                 -13.912
 INTRA:                  -0.488
 UNBOUND:                -0.488
  Name = 8c
  2 active torsions:
  status: ('A' for Active; 'I' for Inactive)
    1  A    between atoms: C_11  and  C_12
    2  A    between atoms: C_15  and  C_20
                            x       y       z     vdW  Elec       q    Type
                         _______ _______ _______ _____ _____    ______ ____

>  <TORSDO>  (17) 
F 2

>  <s_m_Source_Path>  (17) 
/projects/mai/users/kmzp800_harry/pmx_colab/docking_jobs/tnks2/vina_prep/output

>  <s_m_Source_File>  (17) 
tnks_naive_vina.sdf

>  <i_m_Source_File_Index>  (17) 
17

$$$$
5a
     RDKit          3D

 37 39  0  0  1  0  0  0  0  0999 V2000
  -14.6060  -14.7380  -27.4520 C   0  0  0  0  0  0  0  0  0  0  0  0
  -15.0380  -15.6210  -26.4620 C   0  0  0  0  0  0  0  0  0  0  0  0
  -14.8270  -13.3670  -27.2980 C   0  0  0  0  0  0  0  0  0  0  0  0
  -15.7520  -15.1410  -25.3600 C   0  0  0  0  0  0  0  0  0  0  0  0
  -14.7200  -16.9810  -26.5770 N   0  0  0  0  0  0  0  0  0  0  0  0
  -15.5040  -12.8900  -26.1730 C   0  0  0  0  0  0  0  0  0  0  0  0
  -15.9840  -13.7770  -25.2050 C   0  0  0  0  0  0  0  0  0  0  0  0
  -16.2530  -16.1420  -24.3480 C   0  0  0  0  0  0  0  0  0  0  0  0
  -15.7940  -17.3940  -24.5970 N   0  0  0  0  0  0  0  0  0  0  0  0
  -17.0170  -15.9080  -23.4160 O   0  0  0  0  0  0  0  0  0  0  0  0
  -15.0670  -17.8450  -25.6780 C   0  0  0  0  0  0  0  0  0  0  0  0
  -14.7650  -19.2860  -25.7830 C   0  0  0  0  0  0  0  0  0  0  0  0
  -14.2130  -20.0090  -24.7170 C   0  0  0  0  0  0  0  0  0  0  0  0
  -13.9210  -21.3610  -24.8610 C   0  0  0  0  0  0  0  0  0  0  0  0
  -14.1690  -22.0090  -26.0740 C   0  0  0  0  0  0  0  0  0  0  0  0
  -14.7420  -21.2950  -27.1270 C   0  0  0  0  0  0  0  0  0  0  0  0
  -15.0390  -19.9500  -26.9830 C   0  0  0  0  0  0  0  0  0  0  0  0
  -13.6840  -23.4420  -26.2910 C   0  0  0  0  0  0  0  0  0  0  0  0
  -12.7430  -23.6060  -27.4950 C   0  0  0  0  0  0  0  0  0  0  0  0
  -14.9270  -24.3330  -26.3420 C   0  0  0  0  0  0  0  0  0  0  0  0
  -12.8910  -23.9400  -25.2440 O   0  0  0  0  0  0  0  0  0  0  0  0
  -14.0945  -15.1188  -28.3483 H   0  0  0  0  0  0  0  0  0  0  0  0
  -14.4677  -12.6629  -28.0630 H   0  0  0  0  0  0  0  0  0  0  0  0
  -15.6605  -11.8084  -26.0479 H   0  0  0  0  0  0  0  0  0  0  0  0
  -16.5380  -13.4020  -24.3318 H   0  0  0  0  0  0  0  0  0  0  0  0
  -16.0186  -18.1019  -23.8834 H   0  0  0  0  0  0  0  0  0  0  0  0
  -14.0095  -19.5043  -23.7610 H   0  0  0  0  0  0  0  0  0  0  0  0
  -13.4933  -21.9223  -24.0172 H   0  0  0  0  0  0  0  0  0  0  0  0
  -14.9593  -21.8038  -28.0778 H   0  0  0  0  0  0  0  0  0  0  0  0
  -15.4942  -19.3994  -27.8194 H   0  0  0  0  0  0  0  0  0  0  0  0
  -11.7181  -23.7846  -27.1377 H   0  0  0  0  0  0  0  0  0  0  0  0
  -13.0729  -24.4602  -28.1045 H   0  0  0  0  0  0  0  0  0  0  0  0
  -12.7645  -22.6906  -28.1045 H   0  0  0  0  0  0  0  0  0  0  0  0
  -15.2529  -24.5666  -25.3177 H   0  0  0  0  0  0  0  0  0  0  0  0
  -15.7341  -23.8065  -26.8725 H   0  0  0  0  0  0  0  0  0  0  0  0
  -14.6875  -25.2664  -26.8725 H   0  0  0  0  0  0  0  0  0  0  0  0
  -13.2939  -23.6870  -24.3758 H   0  0  0  0  0  0  0  0  0  0  0  0
  1  3  2  0
  1  2  1  0
  2  4  2  0
  2  5  1  0
  3  6  1  0
  4  7  1  0
  4  8  1  0
  5 11  2  0
  6  7  2  0
  8 10  2  0
  8  9  1  0
  9 11  1  0
 11 12  1  0
 12 13  2  0
 12 17  1  0
 13 14  1  0
 14 15  2  0
 15 16  1  0
 15 18  1  0
 16 17  2  0
 18 21  1  0
 18 19  1  0
 18 20  1  0
  1 22  1  0
  3 23  1  0
  6 24  1  0
  7 25  1  0
  9 26  1  0
 13 27  1  0
 14 28  1  0
 16 29  1  0
 17 30  1  0
 19 31  1  0
 19 32  1  0
 19 33  1  0
 20 34  1  0
 20 35  1  0
 20 36  1  0
 21 37  1  0
M  END
>  <s_m_entry_id>  (18) 
2345

>  <MODEL>  (18) 
1

>  <REMARK>  (18) 
 VINA RESULT:   -11.183      0.000      0.000
 INTER + INTRA:         -13.242
 INTER:                 -12.817
 INTRA:                  -0.425
 UNBOUND:                -0.425
  Name = 5a
  5 active torsions:
  status: ('A' for Active; 'I' for Inactive)
    1  A    between atoms: C_11  and  C_12
    2  A    between atoms: C_15  and  C_18
    3  A    between atoms: C_18  and  O_19
    4  A    between atoms: C_18  and  C_20
    5  A    between atoms: C_18  and  C_21
                            x       y       z     vdW  Elec       q    Type
                         _______ _______ _______ _____ _____    ______ ____

>  <TORSDO>  (18) 
F 3

>  <s_m_Source_Path>  (18) 
/projects/mai/users/kmzp800_harry/pmx_colab/docking_jobs/tnks2/vina_prep/output

>  <s_m_Source_File>  (18) 
tnks_naive_vina.sdf

>  <i_m_Source_File_Index>  (18) 
18

$$$$
5d
     RDKit          3D

 37 39  0  0  1  0  0  0  0  0999 V2000
  -14.4120  -14.9280  -27.6190 C   0  0  0  0  0  0  0  0  0  0  0  0
  -14.9140  -15.7180  -26.5860 C   0  0  0  0  0  0  0  0  0  0  0  0
  -14.6500  -13.5570  -27.5960 C   0  0  0  0  0  0  0  0  0  0  0  0
  -15.6800  -15.1570  -25.5560 C   0  0  0  0  0  0  0  0  0  0  0  0
  -14.6280  -17.0780  -26.6050 N   0  0  0  0  0  0  0  0  0  0  0  0
  -15.3970  -13.0050  -26.5580 C   0  0  0  0  0  0  0  0  0  0  0  0
  -15.9250  -13.7880  -25.5360 C   0  0  0  0  0  0  0  0  0  0  0  0
  -15.6230  -11.6910  -26.5540 F   0  0  0  0  0  0  0  0  0  0  0  0
  -16.2330  -16.0780  -24.4880 C   0  0  0  0  0  0  0  0  0  0  0  0
  -15.8400  -17.3640  -24.6810 N   0  0  0  0  0  0  0  0  0  0  0  0
  -16.9740  -15.7530  -23.5580 O   0  0  0  0  0  0  0  0  0  0  0  0
  -15.0610  -17.8850  -25.6990 C   0  0  0  0  0  0  0  0  0  0  0  0
  -14.7800  -19.3250  -25.7570 C   0  0  0  0  0  0  0  0  0  0  0  0
  -14.2570  -20.0220  -24.6620 C   0  0  0  0  0  0  0  0  0  0  0  0
  -13.9600  -21.3720  -24.7820 C   0  0  0  0  0  0  0  0  0  0  0  0
  -14.1950  -22.0410  -25.9900 C   0  0  0  0  0  0  0  0  0  0  0  0
  -14.7430  -21.3550  -27.0670 C   0  0  0  0  0  0  0  0  0  0  0  0
  -15.0340  -20.0110  -26.9520 C   0  0  0  0  0  0  0  0  0  0  0  0
  -13.7520  -23.4880  -26.1560 C   0  0  0  0  0  0  0  0  0  0  0  0
  -12.8080  -23.6530  -27.3410 C   0  0  0  0  0  0  0  0  0  0  0  0
  -15.0080  -24.3510  -26.1940 C   0  0  0  0  0  0  0  0  0  0  0  0
  -12.9760  -23.9960  -25.1030 O   0  0  0  0  0  0  0  0  0  0  0  0
  -13.8366  -15.3813  -28.4397 H   0  0  0  0  0  0  0  0  0  0  0  0
  -14.2504  -12.9129  -28.3931 H   0  0  0  0  0  0  0  0  0  0  0  0
  -16.5222  -13.3348  -24.7310 H   0  0  0  0  0  0  0  0  0  0  0  0
  -16.1650  -18.0410  -23.9761 H   0  0  0  0  0  0  0  0  0  0  0  0
  -14.0819  -19.5012  -23.7091 H   0  0  0  0  0  0  0  0  0  0  0  0
  -13.5386  -21.9188  -23.9256 H   0  0  0  0  0  0  0  0  0  0  0  0
  -14.9447  -21.8830  -28.0107 H   0  0  0  0  0  0  0  0  0  0  0  0
  -15.4696  -19.4730  -27.8068 H   0  0  0  0  0  0  0  0  0  0  0  0
  -11.7865  -23.8315  -26.9740 H   0  0  0  0  0  0  0  0  0  0  0  0
  -13.1327  -24.5080  -27.9522 H   0  0  0  0  0  0  0  0  0  0  0  0
  -12.8234  -22.7385  -27.9522 H   0  0  0  0  0  0  0  0  0  0  0  0
  -15.3314  -24.5732  -25.1664 H   0  0  0  0  0  0  0  0  0  0  0  0
  -15.8081  -23.8110  -26.7215 H   0  0  0  0  0  0  0  0  0  0  0  0
  -14.7908  -25.2915  -26.7215 H   0  0  0  0  0  0  0  0  0  0  0  0
  -13.3795  -23.7318  -24.2384 H   0  0  0  0  0  0  0  0  0  0  0  0
  1  3  2  0
  1  2  1  0
  2  4  2  0
  2  5  1  0
  3  6  1  0
  4  7  1  0
  4  9  1  0
  5 12  2  0
  6  8  1  0
  6  7  2  0
  9 11  2  0
  9 10  1  0
 10 12  1  0
 12 13  1  0
 13 14  2  0
 13 18  1  0
 14 15  1  0
 15 16  2  0
 16 17  1  0
 16 19  1  0
 17 18  2  0
 19 22  1  0
 19 20  1  0
 19 21  1  0
  1 23  1  0
  3 24  1  0
  7 25  1  0
 10 26  1  0
 14 27  1  0
 15 28  1  0
 17 29  1  0
 18 30  1  0
 20 31  1  0
 20 32  1  0
 20 33  1  0
 21 34  1  0
 21 35  1  0
 21 36  1  0
 22 37  1  0
M  END
>  <s_m_entry_id>  (19) 
2346

>  <MODEL>  (19) 
1

>  <REMARK>  (19) 
 VINA RESULT:   -11.142      0.000      0.000
 INTER + INTRA:         -13.213
 INTER:                 -12.770
 INTRA:                  -0.443
 UNBOUND:                -0.443
  Name = 5d
  5 active torsions:
  status: ('A' for Active; 'I' for Inactive)
    1  A    between atoms: C_12  and  C_13
    2  A    between atoms: C_16  and  C_19
    3  A    between atoms: C_19  and  O_20
    4  A    between atoms: C_19  and  C_21
    5  A    between atoms: C_19  and  C_22
                            x       y       z     vdW  Elec       q    Type
                         _______ _______ _______ _____ _____    ______ ____

>  <TORSDO>  (19) 
F 3

>  <s_m_Source_Path>  (19) 
/projects/mai/users/kmzp800_harry/pmx_colab/docking_jobs/tnks2/vina_prep/output

>  <s_m_Source_File>  (19) 
tnks_naive_vina.sdf

>  <i_m_Source_File_Index>  (19) 
19

$$$$
5j
     RDKit          3D

 37 39  0  0  1  0  0  0  0  0999 V2000
  -14.3800  -14.8880  -27.6750 C   0  0  0  0  0  0  0  0  0  0  0  0
  -14.8760  -15.6650  -26.6320 C   0  0  0  0  0  0  0  0  0  0  0  0
  -14.5870  -13.5120  -27.6540 C   0  0  0  0  0  0  0  0  0  0  0  0
  -15.6040  -15.0890  -25.5830 C   0  0  0  0  0  0  0  0  0  0  0  0
  -14.6110  -17.0310  -26.6520 N   0  0  0  0  0  0  0  0  0  0  0  0
  -15.2880  -12.9330  -26.5990 C   0  0  0  0  0  0  0  0  0  0  0  0
  -15.8060  -13.7140  -25.5580 C   0  0  0  0  0  0  0  0  0  0  0  0
  -16.1420  -15.9950  -24.4950 C   0  0  0  0  0  0  0  0  0  0  0  0
  -15.7910  -17.2880  -24.7010 N   0  0  0  0  0  0  0  0  0  0  0  0
  -16.8390  -15.6690  -23.5330 O   0  0  0  0  0  0  0  0  0  0  0  0
  -15.0420  -17.8240  -25.7320 C   0  0  0  0  0  0  0  0  0  0  0  0
  -15.4640  -11.6040  -26.6070 F   0  0  0  0  0  0  0  0  0  0  0  0
  -16.4870  -13.1500  -24.5370 F   0  0  0  0  0  0  0  0  0  0  0  0
  -14.8000  -19.2690  -25.7800 C   0  0  0  0  0  0  0  0  0  0  0  0
  -14.3650  -19.9750  -24.6520 C   0  0  0  0  0  0  0  0  0  0  0  0
  -14.1380  -21.3390  -24.7390 C   0  0  0  0  0  0  0  0  0  0  0  0
  -14.3460  -22.0060  -25.9490 C   0  0  0  0  0  0  0  0  0  0  0  0
  -14.7910  -21.3060  -27.0660 C   0  0  0  0  0  0  0  0  0  0  0  0
  -15.0140  -19.9480  -26.9850 C   0  0  0  0  0  0  0  0  0  0  0  0
  -13.9560  -23.4680  -26.0770 C   0  0  0  0  0  0  0  0  0  0  0  0
  -12.9220  -23.7080  -27.1760 C   0  0  0  0  0  0  0  0  0  0  0  0
  -15.2510  -24.2590  -26.2060 C   0  0  0  0  0  0  0  0  0  0  0  0
  -13.3150  -23.9970  -24.9530 O   0  0  0  0  0  0  0  0  0  0  0  0
  -13.8312  -15.3559  -28.5056 H   0  0  0  0  0  0  0  0  0  0  0  0
  -14.1980  -12.8833  -28.4685 H   0  0  0  0  0  0  0  0  0  0  0  0
  -16.1267  -17.9600  -23.9962 H   0  0  0  0  0  0  0  0  0  0  0  0
  -14.2040  -19.4485  -23.6997 H   0  0  0  0  0  0  0  0  0  0  0  0
  -13.7940  -21.8968  -23.8555 H   0  0  0  0  0  0  0  0  0  0  0  0
  -14.9649  -21.8362  -28.0139 H   0  0  0  0  0  0  0  0  0  0  0  0
  -15.3614  -19.3960  -27.8708 H   0  0  0  0  0  0  0  0  0  0  0  0
  -11.9472  -23.9343  -26.7192 H   0  0  0  0  0  0  0  0  0  0  0  0
  -13.2403  -24.5562  -27.8000 H   0  0  0  0  0  0  0  0  0  0  0  0
  -12.8341  -22.8064  -27.8000 H   0  0  0  0  0  0  0  0  0  0  0  0
  -15.6378  -24.4952  -25.2037 H   0  0  0  0  0  0  0  0  0  0  0  0
  -15.9935  -23.6601  -26.7537 H   0  0  0  0  0  0  0  0  0  0  0  0
  -15.0571  -25.1930  -26.7537 H   0  0  0  0  0  0  0  0  0  0  0  0
  -13.7425  -23.6442  -24.1327 H   0  0  0  0  0  0  0  0  0  0  0  0
  1  3  2  0
  1  2  1  0
  2  4  2  0
  2  5  1  0
  3  6  1  0
  4  7  1  0
  4  8  1  0
  5 11  2  0
  6  7  2  0
  6 12  1  0
  7 13  1  0
  8 10  2  0
  8  9  1  0
  9 11  1  0
 11 14  1  0
 14 15  2  0
 14 19  1  0
 15 16  1  0
 16 17  2  0
 17 18  1  0
 17 20  1  0
 18 19  2  0
 20 23  1  0
 20 21  1  0
 20 22  1  0
  1 24  1  0
  3 25  1  0
  9 26  1  0
 15 27  1  0
 16 28  1  0
 18 29  1  0
 19 30  1  0
 21 31  1  0
 21 32  1  0
 21 33  1  0
 22 34  1  0
 22 35  1  0
 22 36  1  0
 23 37  1  0
M  END
>  <s_m_entry_id>  (20) 
2347

>  <MODEL>  (20) 
1

>  <REMARK>  (20) 
 VINA RESULT:   -11.127      0.000      0.000
 INTER + INTRA:         -13.213
 INTER:                 -12.753
 INTRA:                  -0.460
 UNBOUND:                -0.460
  Name = 5j
  5 active torsions:
  status: ('A' for Active; 'I' for Inactive)
    1  A    between atoms: C_11  and  C_12
    2  A    between atoms: C_15  and  C_18
    3  A    between atoms: C_18  and  O_19
    4  A    between atoms: C_18  and  C_22
    5  A    between atoms: C_18  and  C_23
                            x       y       z     vdW  Elec       q    Type
                         _______ _______ _______ _____ _____    ______ ____

>  <TORSDO>  (20) 
F 3

>  <s_m_Source_Path>  (20) 
/projects/mai/users/kmzp800_harry/pmx_colab/docking_jobs/tnks2/vina_prep/output

>  <s_m_Source_File>  (20) 
tnks_naive_vina.sdf

>  <i_m_Source_File_Index>  (20) 
20

$$$$
5f
     RDKit          3D

 37 39  0  0  1  0  0  0  0  0999 V2000
  -14.5380  -14.6670  -27.4990 C   0  0  0  0  0  0  0  0  0  0  0  0
  -15.0270  -15.5380  -26.5190 C   0  0  0  0  0  0  0  0  0  0  0  0
  -14.7530  -13.2930  -27.3700 C   0  0  0  0  0  0  0  0  0  0  0  0
  -15.7960  -15.0330  -25.4620 C   0  0  0  0  0  0  0  0  0  0  0  0
  -14.7110  -16.9070  -26.5780 N   0  0  0  0  0  0  0  0  0  0  0  0
  -15.4770  -12.7940  -26.2880 C   0  0  0  0  0  0  0  0  0  0  0  0
  -16.0180  -13.6640  -25.3370 C   0  0  0  0  0  0  0  0  0  0  0  0
  -16.3640  -16.0080  -24.4610 C   0  0  0  0  0  0  0  0  0  0  0  0
  -15.8880  -17.2640  -24.6490 N   0  0  0  0  0  0  0  0  0  0  0  0
  -17.1860  -15.7480  -23.5890 O   0  0  0  0  0  0  0  0  0  0  0  0
  -15.1130  -17.7470  -25.6790 C   0  0  0  0  0  0  0  0  0  0  0  0
  -13.8070  -15.1300  -28.5420 F   0  0  0  0  0  0  0  0  0  0  0  0
  -14.8220  -19.1930  -25.7420 C   0  0  0  0  0  0  0  0  0  0  0  0
  -14.3520  -19.9030  -24.6260 C   0  0  0  0  0  0  0  0  0  0  0  0
  -14.0700  -21.2600  -24.7270 C   0  0  0  0  0  0  0  0  0  0  0  0
  -14.2480  -21.9260  -25.9420 C   0  0  0  0  0  0  0  0  0  0  0  0
  -14.7360  -21.2250  -27.0450 C   0  0  0  0  0  0  0  0  0  0  0  0
  -15.0230  -19.8750  -26.9460 C   0  0  0  0  0  0  0  0  0  0  0  0
  -13.7700  -23.3700  -26.1010 C   0  0  0  0  0  0  0  0  0  0  0  0
  -12.7870  -23.5800  -27.2600 C   0  0  0  0  0  0  0  0  0  0  0  0
  -15.0180  -24.2480  -26.1790 C   0  0  0  0  0  0  0  0  0  0  0  0
  -13.0240  -23.8430  -25.0100 O   0  0  0  0  0  0  0  0  0  0  0  0
  -14.3496  -12.6020  -28.1249 H   0  0  0  0  0  0  0  0  0  0  0  0
  -15.6234  -11.7089  -26.1820 H   0  0  0  0  0  0  0  0  0  0  0  0
  -16.6127  -13.2714  -24.4990 H   0  0  0  0  0  0  0  0  0  0  0  0
  -16.1406  -17.9492  -23.9227 H   0  0  0  0  0  0  0  0  0  0  0  0
  -14.2063  -19.3831  -23.6676 H   0  0  0  0  0  0  0  0  0  0  0  0
  -13.7056  -21.8113  -23.8477 H   0  0  0  0  0  0  0  0  0  0  0  0
  -14.8936  -21.7487  -27.9994 H   0  0  0  0  0  0  0  0  0  0  0  0
  -15.4123  -19.3342  -27.8212 H   0  0  0  0  0  0  0  0  0  0  0  0
  -11.7859  -23.7939  -26.8575 H   0  0  0  0  0  0  0  0  0  0  0  0
  -13.1228  -24.4267  -27.8768 H   0  0  0  0  0  0  0  0  0  0  0  0
  -12.7475  -22.6700  -27.8768 H   0  0  0  0  0  0  0  0  0  0  0  0
  -15.3608  -24.4892  -25.1620 H   0  0  0  0  0  0  0  0  0  0  0  0
  -15.8126  -23.7089  -26.7156 H   0  0  0  0  0  0  0  0  0  0  0  0
  -14.7791  -25.1780  -26.7156 H   0  0  0  0  0  0  0  0  0  0  0  0
  -13.4613  -23.5657  -24.1662 H   0  0  0  0  0  0  0  0  0  0  0  0
  1  3  2  0
  1  2  1  0
  1 12  1  0
  2  4  2  0
  2  5  1  0
  3  6  1  0
  4  7  1  0
  4  8  1  0
  5 11  2  0
  6  7  2  0
  8 10  2  0
  8  9  1  0
  9 11  1  0
 11 13  1  0
 13 14  2  0
 13 18  1  0
 14 15  1  0
 15 16  2  0
 16 17  1  0
 16 19  1  0
 17 18  2  0
 19 22  1  0
 19 20  1  0
 19 21  1  0
  3 23  1  0
  6 24  1  0
  7 25  1  0
  9 26  1  0
 14 27  1  0
 15 28  1  0
 17 29  1  0
 18 30  1  0
 20 31  1  0
 20 32  1  0
 20 33  1  0
 21 34  1  0
 21 35  1  0
 21 36  1  0
 22 37  1  0
M  END
>  <s_m_entry_id>  (21) 
2348

>  <MODEL>  (21) 
1

>  <REMARK>  (21) 
 VINA RESULT:   -11.575      0.000      0.000
 INTER + INTRA:         -13.713
 INTER:                 -13.266
 INTRA:                  -0.446
 UNBOUND:                -0.446
  Name = 5f
  5 active torsions:
  status: ('A' for Active; 'I' for Inactive)
    1  A    between atoms: C_11  and  C_12
    2  A    between atoms: C_15  and  C_18
    3  A    between atoms: C_18  and  O_19
    4  A    between atoms: C_18  and  C_20
    5  A    between atoms: C_18  and  C_21
                            x       y       z     vdW  Elec       q    Type
                         _______ _______ _______ _____ _____    ______ ____

>  <TORSDO>  (21) 
F 3

>  <s_m_Source_Path>  (21) 
/projects/mai/users/kmzp800_harry/pmx_colab/docking_jobs/tnks2/vina_prep/output

>  <s_m_Source_File>  (21) 
tnks_naive_vina.sdf

>  <i_m_Source_File_Index>  (21) 
21

$$$$
8d
     RDKit          3D

 45 48  0  0  1  0  0  0  0  0999 V2000
  -14.5260  -14.6100  -27.4000 C   0  0  0  0  0  0  0  0  0  0  0  0
  -15.0200  -15.4600  -26.3950 C   0  0  0  0  0  0  0  0  0  0  0  0
  -14.6560  -13.2290  -27.2500 C   0  0  0  0  0  0  0  0  0  0  0  0
  -15.7030  -14.9170  -25.2980 C   0  0  0  0  0  0  0  0  0  0  0  0
  -14.8100  -16.8490  -26.4840 N   0  0  0  0  0  0  0  0  0  0  0  0
  -15.2960  -12.6930  -26.1380 C   0  0  0  0  0  0  0  0  0  0  0  0
  -15.8400  -13.5320  -25.1610 C   0  0  0  0  0  0  0  0  0  0  0  0
  -16.2820  -15.8710  -24.2740 C   0  0  0  0  0  0  0  0  0  0  0  0
  -15.8940  -17.1590  -24.5000 N   0  0  0  0  0  0  0  0  0  0  0  0
  -17.0490  -15.5620  -23.3580 O   0  0  0  0  0  0  0  0  0  0  0  0
  -15.2120  -17.6840  -25.5840 C   0  0  0  0  0  0  0  0  0  0  0  0
  -13.8160  -15.1400  -28.6360 C   0  0  0  0  0  0  0  0  0  0  0  0
  -15.3810  -11.3500  -26.0230 F   0  0  0  0  0  0  0  0  0  0  0  0
  -15.0010  -19.1500  -25.7140 C   0  0  0  0  0  0  0  0  0  0  0  0
  -14.9360  -19.7270  -26.9930 C   0  0  0  0  0  0  0  0  0  0  0  0
  -14.7720  -21.0980  -27.1560 C   0  0  0  0  0  0  0  0  0  0  0  0
  -14.6600  -21.9340  -26.0410 C   0  0  0  0  0  0  0  0  0  0  0  0
  -14.7030  -21.3660  -24.7640 C   0  0  0  0  0  0  0  0  0  0  0  0
  -14.8770  -19.9910  -24.5990 C   0  0  0  0  0  0  0  0  0  0  0  0
  -14.5860  -23.4620  -26.2020 C   0  0  0  0  0  0  0  0  0  0  0  0
  -13.2040  -24.0130  -26.6390 C   0  0  0  0  0  0  0  0  0  0  0  0
  -13.1690  -25.5200  -27.0620 C   0  0  0  0  0  0  0  0  0  0  0  0
  -14.3650  -25.8770  -27.9420 N   0  0  0  0  0  0  0  0  0  0  0  0
  -15.6660  -25.4810  -27.2490 C   0  0  0  0  0  0  0  0  0  0  0  0
  -15.6830  -23.9530  -27.1570 C   0  0  0  0  0  0  0  0  0  0  0  0
  -14.2479  -12.5572  -28.0195 H   0  0  0  0  0  0  0  0  0  0  0  0
  -16.3694  -13.1079  -24.2950 H   0  0  0  0  0  0  0  0  0  0  0  0
  -16.1427  -17.8337  -23.7626 H   0  0  0  0  0  0  0  0  0  0  0  0
  -12.9694  -15.7720  -28.3298 H   0  0  0  0  0  0  0  0  0  0  0  0
  -14.5198  -15.7354  -29.2361 H   0  0  0  0  0  0  0  0  0  0  0  0
  -13.4453  -14.2959  -29.2361 H   0  0  0  0  0  0  0  0  0  0  0  0
  -15.0162  -19.0830  -27.8811 H   0  0  0  0  0  0  0  0  0  0  0  0
  -14.7301  -21.5273  -28.1679 H   0  0  0  0  0  0  0  0  0  0  0  0
  -14.5984  -22.0106  -23.8788 H   0  0  0  0  0  0  0  0  0  0  0  0
  -14.9172  -19.5638  -23.5862 H   0  0  0  0  0  0  0  0  0  0  0  0
  -14.7485  -23.8644  -25.1912 H   0  0  0  0  0  0  0  0  0  0  0  0
  -12.8586  -23.4149  -27.4952 H   0  0  0  0  0  0  0  0  0  0  0  0
  -12.5605  -23.9393  -25.7499 H   0  0  0  0  0  0  0  0  0  0  0  0
  -12.2419  -25.7137  -27.6215 H   0  0  0  0  0  0  0  0  0  0  0  0
  -13.2106  -26.1371  -26.1524 H   0  0  0  0  0  0  0  0  0  0  0  0
  -14.2902  -25.3746  -28.8380 H   0  0  0  0  0  0  0  0  0  0  0  0
  -16.5276  -25.8329  -27.8354 H   0  0  0  0  0  0  0  0  0  0  0  0
  -15.7286  -25.9332  -26.2482 H   0  0  0  0  0  0  0  0  0  0  0  0
  -16.6635  -23.6233  -26.7828 H   0  0  0  0  0  0  0  0  0  0  0  0
  -15.4994  -23.5333  -28.1571 H   0  0  0  0  0  0  0  0  0  0  0  0
  1  3  2  0
  1  2  1  0
  1 12  1  0
  2  4  2  0
  2  5  1  0
  3  6  1  0
  4  7  1  0
  4  8  1  0
  5 11  2  0
  6 13  1  0
  6  7  2  0
  8 10  2  0
  8  9  1  0
  9 11  1  0
 11 14  1  0
 14 19  1  0
 14 15  2  0
 15 16  1  0
 16 17  2  0
 17 18  1  0
 17 20  1  0
 18 19  2  0
 20 21  1  0
 20 25  1  0
 21 22  1  0
 22 23  1  0
 23 24  1  0
 24 25  1  0
  3 26  1  0
  7 27  1  0
  9 28  1  0
 12 29  1  0
 12 30  1  0
 12 31  1  0
 15 32  1  0
 16 33  1  0
 18 34  1  0
 19 35  1  0
 20 36  1  0
 21 37  1  0
 21 38  1  0
 22 39  1  0
 22 40  1  0
 23 41  1  0
 24 42  1  0
 24 43  1  0
 25 44  1  0
 25 45  1  0
M  END
>  <s_m_entry_id>  (22) 
2349

>  <MODEL>  (22) 
1

>  <REMARK>  (22) 
 VINA RESULT:   -11.609      0.000      0.000
 INTER + INTRA:         -13.440
 INTER:                 -12.967
 INTRA:                  -0.474
 UNBOUND:                -0.474
  Name = 8d
  3 active torsions:
  status: ('A' for Active; 'I' for Inactive)
    1  A    between atoms: C_1  and  C_18
    2  A    between atoms: C_11  and  C_12
    3  A    between atoms: C_15  and  C_20
                            x       y       z     vdW  Elec       q    Type
                         _______ _______ _______ _____ _____    ______ ____

>  <TORSDO>  (22) 
F 2

>  <s_m_Source_Path>  (22) 
/projects/mai/users/kmzp800_harry/pmx_colab/docking_jobs/tnks2/vina_prep/output

>  <s_m_Source_File>  (22) 
tnks_naive_vina.sdf

>  <i_m_Source_File_Index>  (22) 
22

$$$$
5b
     RDKit          3D

 37 39  0  0  1  0  0  0  0  0999 V2000
  -14.5510  -14.7380  -27.5390 C   0  0  0  0  0  0  0  0  0  0  0  0
  -14.9660  -15.6100  -26.5310 C   0  0  0  0  0  0  0  0  0  0  0  0
  -14.7400  -13.3620  -27.3850 C   0  0  0  0  0  0  0  0  0  0  0  0
  -15.6280  -15.1140  -25.4040 C   0  0  0  0  0  0  0  0  0  0  0  0
  -14.6880  -16.9800  -26.6570 N   0  0  0  0  0  0  0  0  0  0  0  0
  -15.3650  -12.8680  -26.2380 C   0  0  0  0  0  0  0  0  0  0  0  0
  -15.8160  -13.7440  -25.2480 C   0  0  0  0  0  0  0  0  0  0  0  0
  -16.1130  -16.1020  -24.3650 C   0  0  0  0  0  0  0  0  0  0  0  0
  -15.6940  -17.3610  -24.6360 N   0  0  0  0  0  0  0  0  0  0  0  0
  -16.8320  -15.8620  -23.3970 O   0  0  0  0  0  0  0  0  0  0  0  0
  -15.0100  -17.8320  -25.7380 C   0  0  0  0  0  0  0  0  0  0  0  0
  -16.4110  -13.2670  -24.1390 F   0  0  0  0  0  0  0  0  0  0  0  0
  -14.7280  -19.2780  -25.8300 C   0  0  0  0  0  0  0  0  0  0  0  0
  -15.0190  -19.9650  -27.0150 C   0  0  0  0  0  0  0  0  0  0  0  0
  -14.7340  -21.3170  -27.1320 C   0  0  0  0  0  0  0  0  0  0  0  0
  -14.1570  -22.0090  -26.0700 C   0  0  0  0  0  0  0  0  0  0  0  0
  -13.8830  -21.3340  -24.8770 C   0  0  0  0  0  0  0  0  0  0  0  0
  -14.1700  -19.9830  -24.7530 C   0  0  0  0  0  0  0  0  0  0  0  0
  -13.7140  -23.4630  -26.2320 C   0  0  0  0  0  0  0  0  0  0  0  0
  -12.7780  -23.6620  -27.4230 C   0  0  0  0  0  0  0  0  0  0  0  0
  -14.9650  -24.3340  -26.2350 C   0  0  0  0  0  0  0  0  0  0  0  0
  -12.9370  -23.9660  -25.1810 O   0  0  0  0  0  0  0  0  0  0  0  0
  -14.0774  -15.1322  -28.4502 H   0  0  0  0  0  0  0  0  0  0  0  0
  -14.3967  -12.6684  -28.1667 H   0  0  0  0  0  0  0  0  0  0  0  0
  -15.5028  -11.7838  -26.1136 H   0  0  0  0  0  0  0  0  0  0  0  0
  -15.9172  -18.0659  -23.9189 H   0  0  0  0  0  0  0  0  0  0  0  0
  -15.4769  -19.4284  -27.8590 H   0  0  0  0  0  0  0  0  0  0  0  0
  -14.9649  -21.8457  -28.0686 H   0  0  0  0  0  0  0  0  0  0  0  0
  -13.4369  -21.8779  -24.0313 H   0  0  0  0  0  0  0  0  0  0  0  0
  -13.9595  -19.4624  -23.8071 H   0  0  0  0  0  0  0  0  0  0  0  0
  -11.7626  -23.8779  -27.0593 H   0  0  0  0  0  0  0  0  0  0  0  0
  -13.1355  -24.5042  -28.0336 H   0  0  0  0  0  0  0  0  0  0  0  0
  -12.7620  -22.7472  -28.0336 H   0  0  0  0  0  0  0  0  0  0  0  0
  -15.2676  -24.5447  -25.1986 H   0  0  0  0  0  0  0  0  0  0  0  0
  -15.7783  -23.8058  -26.7543 H   0  0  0  0  0  0  0  0  0  0  0  0
  -14.7519  -25.2800  -26.7543 H   0  0  0  0  0  0  0  0  0  0  0  0
  -13.3419  -23.7039  -24.3165 H   0  0  0  0  0  0  0  0  0  0  0  0
  1  3  2  0
  1  2  1  0
  2  4  2  0
  2  5  1  0
  3  6  1  0
  4  7  1  0
  4  8  1  0
  5 11  2  0
  6  7  2  0
  7 12  1  0
  8 10  2  0
  8  9  1  0
  9 11  1  0
 11 13  1  0
 13 18  1  0
 13 14  2  0
 14 15  1  0
 15 16  2  0
 16 17  1  0
 16 19  1  0
 17 18  2  0
 19 22  1  0
 19 20  1  0
 19 21  1  0
  1 23  1  0
  3 24  1  0
  6 25  1  0
  9 26  1  0
 14 27  1  0
 15 28  1  0
 17 29  1  0
 18 30  1  0
 20 31  1  0
 20 32  1  0
 20 33  1  0
 21 34  1  0
 21 35  1  0
 21 36  1  0
 22 37  1  0
M  END
>  <s_m_entry_id>  (23) 
2350

>  <MODEL>  (23) 
1

>  <REMARK>  (23) 
 VINA RESULT:   -11.067      0.000      0.000
 INTER + INTRA:         -13.119
 INTER:                 -12.685
 INTRA:                  -0.434
 UNBOUND:                -0.434
  Name = 5b
  5 active torsions:
  status: ('A' for Active; 'I' for Inactive)
    1  A    between atoms: C_11  and  C_12
    2  A    between atoms: C_15  and  C_18
    3  A    between atoms: C_18  and  O_19
    4  A    between atoms: C_18  and  C_20
    5  A    between atoms: C_18  and  C_21
                            x       y       z     vdW  Elec       q    Type
                         _______ _______ _______ _____ _____    ______ ____

>  <TORSDO>  (23) 
F 3

>  <s_m_Source_Path>  (23) 
/projects/mai/users/kmzp800_harry/pmx_colab/docking_jobs/tnks2/vina_prep/output

>  <s_m_Source_File>  (23) 
tnks_naive_vina.sdf

>  <i_m_Source_File_Index>  (23) 
23

$$$$
3b
     RDKit          3D

 39 41  0  0  1  0  0  0  0  0999 V2000
  -14.3680  -14.9610  -27.6520 C   0  0  0  0  0  0  0  0  0  0  0  0
  -14.8920  -15.7330  -26.6200 C   0  0  0  0  0  0  0  0  0  0  0  0
  -14.5530  -13.5840  -27.6230 C   0  0  0  0  0  0  0  0  0  0  0  0
  -15.6410  -15.1560  -25.5890 C   0  0  0  0  0  0  0  0  0  0  0  0
  -14.6380  -17.0960  -26.6380 N   0  0  0  0  0  0  0  0  0  0  0  0
  -15.2830  -13.0080  -26.5840 C   0  0  0  0  0  0  0  0  0  0  0  0
  -15.8460  -13.7810  -25.5670 C   0  0  0  0  0  0  0  0  0  0  0  0
  -16.2100  -16.0720  -24.5240 C   0  0  0  0  0  0  0  0  0  0  0  0
  -15.7650  -17.3500  -24.6650 N   0  0  0  0  0  0  0  0  0  0  0  0
  -17.0090  -15.7560  -23.6430 O   0  0  0  0  0  0  0  0  0  0  0  0
  -15.0400  -17.8890  -25.7070 C   0  0  0  0  0  0  0  0  0  0  0  0
  -15.4520  -11.6870  -26.5840 F   0  0  0  0  0  0  0  0  0  0  0  0
  -14.7710  -19.3290  -25.7730 C   0  0  0  0  0  0  0  0  0  0  0  0
  -15.0290  -19.9830  -26.9810 C   0  0  0  0  0  0  0  0  0  0  0  0
  -14.7420  -21.3180  -27.1300 C   0  0  0  0  0  0  0  0  0  0  0  0
  -14.2010  -22.0470  -26.0690 C   0  0  0  0  0  0  0  0  0  0  0  0
  -13.9730  -21.4090  -24.8450 C   0  0  0  0  0  0  0  0  0  0  0  0
  -14.2570  -20.0560  -24.6930 C   0  0  0  0  0  0  0  0  0  0  0  0
  -13.8140  -23.5190  -26.2620 C   0  0  0  0  0  0  0  0  0  0  0  0
  -13.1600  -24.0180  -24.9730 C   0  0  0  0  0  0  0  0  0  0  0  0
  -12.8160  -23.7060  -27.4090 C   0  0  0  0  0  0  0  0  0  0  0  0
  -15.0200  -24.3740  -26.6510 C   0  0  0  0  0  0  0  0  0  0  0  0
  -13.8159  -15.4332  -28.4780 H   0  0  0  0  0  0  0  0  0  0  0  0
  -14.1258  -12.9519  -28.4154 H   0  0  0  0  0  0  0  0  0  0  0  0
  -16.4381  -13.3131  -24.7667 H   0  0  0  0  0  0  0  0  0  0  0  0
  -15.9989  -17.9958  -23.8974 H   0  0  0  0  0  0  0  0  0  0  0  0
  -15.4663  -19.4230  -27.8208 H   0  0  0  0  0  0  0  0  0  0  0  0
  -14.9395  -21.8158  -28.0908 H   0  0  0  0  0  0  0  0  0  0  0  0
  -13.5667  -21.9809  -23.9977 H   0  0  0  0  0  0  0  0  0  0  0  0
  -14.0784  -19.5593  -23.7279 H   0  0  0  0  0  0  0  0  0  0  0  0
  -13.6982  -23.6074  -24.1060 H   0  0  0  0  0  0  0  0  0  0  0  0
  -13.2005  -25.1168  -24.9429 H   0  0  0  0  0  0  0  0  0  0  0  0
  -12.1109  -23.6888  -24.9429 H   0  0  0  0  0  0  0  0  0  0  0  0
  -11.8139  -23.8938  -26.9961 H   0  0  0  0  0  0  0  0  0  0  0  0
  -13.1242  -24.5620  -28.0273 H   0  0  0  0  0  0  0  0  0  0  0  0
  -12.7933  -22.7965  -28.0273 H   0  0  0  0  0  0  0  0  0  0  0  0
  -15.5246  -24.7317  -25.7414 H   0  0  0  0  0  0  0  0  0  0  0  0
  -15.7211  -23.7701  -27.2458 H   0  0  0  0  0  0  0  0  0  0  0  0
  -14.6822  -25.2355  -27.2458 H   0  0  0  0  0  0  0  0  0  0  0  0
  1  3  2  0
  1  2  1  0
  2  4  2  0
  2  5  1  0
  3  6  1  0
  4  7  1  0
  4  8  1  0
  5 11  2  0
  6  7  2  0
  6 12  1  0
  8 10  2  0
  8  9  1  0
  9 11  1  0
 11 13  1  0
 13 18  1  0
 13 14  2  0
 14 15  1  0
 15 16  2  0
 16 17  1  0
 16 19  1  0
 17 18  2  0
 19 20  1  0
 19 21  1  0
 19 22  1  0
  1 23  1  0
  3 24  1  0
  7 25  1  0
  9 26  1  0
 14 27  1  0
 15 28  1  0
 17 29  1  0
 18 30  1  0
 20 31  1  0
 20 32  1  0
 20 33  1  0
 21 34  1  0
 21 35  1  0
 21 36  1  0
 22 37  1  0
 22 38  1  0
 22 39  1  0
M  END
>  <s_m_entry_id>  (24) 
2351

>  <MODEL>  (24) 
1

>  <REMARK>  (24) 
 VINA RESULT:   -11.709      0.000      0.000
 INTER + INTRA:         -13.579
 INTER:                 -13.078
 INTRA:                  -0.501
 UNBOUND:                -0.501
  Name = 3b
  5 active torsions:
  status: ('A' for Active; 'I' for Inactive)
    1  A    between atoms: C_11  and  C_12
    2  A    between atoms: C_15  and  C_19
    3  A    between atoms: C_19  and  C_20
    4  A    between atoms: C_19  and  C_21
    5  A    between atoms: C_19  and  C_22
                            x       y       z     vdW  Elec       q    Type
                         _______ _______ _______ _____ _____    ______ ____

>  <TORSDO>  (24) 
F 2

>  <s_m_Source_Path>  (24) 
/projects/mai/users/kmzp800_harry/pmx_colab/docking_jobs/tnks2/vina_prep/output

>  <s_m_Source_File>  (24) 
tnks_naive_vina.sdf

>  <i_m_Source_File_Index>  (24) 
24

$$$$
1b
     RDKit          3D

 31 33  0  0  1  0  0  0  0  0999 V2000
  -14.7590  -17.2630  -26.4740 N   0  0  0  0  0  0  0  0  0  0  0  0
  -14.9850  -15.8860  -26.5340 C   0  0  0  0  0  0  0  0  0  0  0  0
  -15.7640  -15.2570  -25.5520 C   0  0  0  0  0  0  0  0  0  0  0  0
  -15.3410  -13.1490  -26.6010 C   0  0  0  0  0  0  0  0  0  0  0  0
  -14.5800  -13.7600  -27.5890 C   0  0  0  0  0  0  0  0  0  0  0  0
  -15.9450  -13.8760  -25.5810 C   0  0  0  0  0  0  0  0  0  0  0  0
  -14.4150  -15.1420  -27.5790 C   0  0  0  0  0  0  0  0  0  0  0  0
  -16.4180  -16.1120  -24.4860 C   0  0  0  0  0  0  0  0  0  0  0  0
  -16.0750  -17.4240  -24.6100 N   0  0  0  0  0  0  0  0  0  0  0  0
  -15.2600  -18.0150  -25.5570 C   0  0  0  0  0  0  0  0  0  0  0  0
  -17.2020  -15.7220  -23.6190 O   0  0  0  0  0  0  0  0  0  0  0  0
  -15.0120  -19.4670  -25.5420 C   0  0  0  0  0  0  0  0  0  0  0  0
  -14.8930  -20.1470  -26.7630 C   0  0  0  0  0  0  0  0  0  0  0  0
  -14.8870  -20.1780  -24.3440 C   0  0  0  0  0  0  0  0  0  0  0  0
  -14.6480  -21.5050  -26.7890 C   0  0  0  0  0  0  0  0  0  0  0  0
  -14.6210  -21.5410  -24.3740 C   0  0  0  0  0  0  0  0  0  0  0  0
  -14.5020  -22.2120  -25.5970 C   0  0  0  0  0  0  0  0  0  0  0  0
  -14.2420  -23.5510  -25.6260 O   0  0  0  0  0  0  0  0  0  0  0  0
  -13.1640  -23.8320  -26.6290 C   0  0  0  0  0  0  0  0  0  0  0  0
  -15.4699  -12.0569  -26.6260 H   0  0  0  0  0  0  0  0  0  0  0  0
  -14.1092  -13.1537  -28.3769 H   0  0  0  0  0  0  0  0  0  0  0  0
  -16.5520  -13.3721  -24.8144 H   0  0  0  0  0  0  0  0  0  0  0  0
  -13.8472  -15.6430  -28.3769 H   0  0  0  0  0  0  0  0  0  0  0  0
  -16.4756  -18.0595  -23.9054 H   0  0  0  0  0  0  0  0  0  0  0  0
  -14.9958  -19.5932  -27.7079 H   0  0  0  0  0  0  0  0  0  0  0  0
  -14.9991  -19.6591  -23.3806 H   0  0  0  0  0  0  0  0  0  0  0  0
  -14.5678  -22.0301  -27.7522 H   0  0  0  0  0  0  0  0  0  0  0  0
  -14.5032  -22.0962  -23.4317 H   0  0  0  0  0  0  0  0  0  0  0  0
  -12.2288  -24.0758  -26.1036 H   0  0  0  0  0  0  0  0  0  0  0  0
  -13.4626  -24.6823  -27.2597 H   0  0  0  0  0  0  0  0  0  0  0  0
  -13.0095  -22.9441  -27.2597 H   0  0  0  0  0  0  0  0  0  0  0  0
  1 10  2  0
  1  2  1  0
  2  3  2  0
  2  7  1  0
  3  8  1  0
  3  6  1  0
  4  6  2  0
  4  5  1  0
  5  7  2  0
  8 11  2  0
  8  9  1  0
  9 10  1  0
 10 12  1  0
 12 14  1  0
 12 13  2  0
 13 15  1  0
 14 16  2  0
 15 17  2  0
 16 17  1  0
 17 18  1  0
 18 19  1  0
  4 20  1  0
  5 21  1  0
  6 22  1  0
  7 23  1  0
  9 24  1  0
 13 25  1  0
 14 26  1  0
 15 27  1  0
 16 28  1  0
 19 29  1  0
 19 30  1  0
 19 31  1  0
M  END
>  <s_m_entry_id>  (25) 
2352

>  <MODEL>  (25) 
1

>  <REMARK>  (25) 
 VINA RESULT:   -10.581      0.000      0.000
 INTER + INTRA:         -12.097
 INTER:                 -11.818
 INTRA:                  -0.279
 UNBOUND:                -0.279
  Name = 1b
  3 active torsions:
  status: ('A' for Active; 'I' for Inactive)
    1  A    between atoms: C_1  and  C_16
    2  A    between atoms: C_7  and  O_27
    3  A    between atoms: O_27  and  C_28
                            x       y       z     vdW  Elec       q    Type
                         _______ _______ _______ _____ _____    ______ ____

>  <TORSDO>  (25) 
F 2

>  <s_m_Source_Path>  (25) 
/projects/mai/users/kmzp800_harry/pmx_colab/docking_jobs/tnks2/vina_prep/output

>  <s_m_Source_File>  (25) 
tnks_naive_vina.sdf

>  <i_m_Source_File_Index>  (25) 
25

$$$$
3a
     RDKit          3D

 39 41  0  0  1  0  0  0  0  0999 V2000
  -14.7940  -16.9500  -26.5950 N   0  0  0  0  0  0  0  0  0  0  0  0
  -15.1600  -17.8070  -25.6970 C   0  0  0  0  0  0  0  0  0  0  0  0
  -15.8210  -17.3330  -24.5830 N   0  0  0  0  0  0  0  0  0  0  0  0
  -16.1750  -16.0640  -24.2760 C   0  0  0  0  0  0  0  0  0  0  0  0
  -16.8710  -15.8190  -23.2930 O   0  0  0  0  0  0  0  0  0  0  0  0
  -15.0250  -15.5720  -26.4370 C   0  0  0  0  0  0  0  0  0  0  0  0
  -15.6610  -15.0750  -25.2920 C   0  0  0  0  0  0  0  0  0  0  0  0
  -15.8090  -13.7030  -25.1030 C   0  0  0  0  0  0  0  0  0  0  0  0
  -15.3220  -12.8250  -26.0740 C   0  0  0  0  0  0  0  0  0  0  0  0
  -14.7200  -13.3150  -27.2350 C   0  0  0  0  0  0  0  0  0  0  0  0
  -14.5840  -14.6920  -27.4260 C   0  0  0  0  0  0  0  0  0  0  0  0
  -14.9380  -19.2590  -25.8020 C   0  0  0  0  0  0  0  0  0  0  0  0
  -14.3300  -19.9630  -24.7590 C   0  0  0  0  0  0  0  0  0  0  0  0
  -14.0340  -21.3060  -24.8980 C   0  0  0  0  0  0  0  0  0  0  0  0
  -14.2990  -21.9700  -26.0930 C   0  0  0  0  0  0  0  0  0  0  0  0
  -15.0010  -21.3000  -27.1020 C   0  0  0  0  0  0  0  0  0  0  0  0
  -15.3120  -19.9520  -26.9590 C   0  0  0  0  0  0  0  0  0  0  0  0
  -13.7170  -23.3810  -26.2790 C   0  0  0  0  0  0  0  0  0  0  0  0
  -13.0950  -23.8760  -24.9520 C   0  0  0  0  0  0  0  0  0  0  0  0
  -12.6870  -23.3340  -27.4390 C   0  0  0  0  0  0  0  0  0  0  0  0
  -14.7650  -24.3980  -26.7190 C   0  0  0  0  0  0  0  0  0  0  0  0
  -16.0818  -18.0458  -23.8867 H   0  0  0  0  0  0  0  0  0  0  0  0
  -16.3034  -13.3156  -24.2000 H   0  0  0  0  0  0  0  0  0  0  0  0
  -15.4133  -11.7392  -25.9231 H   0  0  0  0  0  0  0  0  0  0  0  0
  -14.3524  -12.6155  -28.0002 H   0  0  0  0  0  0  0  0  0  0  0  0
  -14.1319  -15.0803  -28.3506 H   0  0  0  0  0  0  0  0  0  0  0  0
  -14.0851  -19.4444  -23.8203 H   0  0  0  0  0  0  0  0  0  0  0  0
  -13.5851  -21.8551  -24.0572 H   0  0  0  0  0  0  0  0  0  0  0  0
  -15.3072  -21.8407  -28.0097 H   0  0  0  0  0  0  0  0  0  0  0  0
  -15.8547  -19.4278  -27.7594 H   0  0  0  0  0  0  0  0  0  0  0  0
  -13.6437  -23.4393  -24.1045 H   0  0  0  0  0  0  0  0  0  0  0  0
  -13.1588  -24.9731  -24.9039 H   0  0  0  0  0  0  0  0  0  0  0  0
  -12.0402  -23.5676  -24.9039 H   0  0  0  0  0  0  0  0  0  0  0  0
  -11.6693  -23.2876  -27.0241 H   0  0  0  0  0  0  0  0  0  0  0  0
  -12.7899  -24.2378  -28.0576 H   0  0  0  0  0  0  0  0  0  0  0  0
  -12.8718  -22.4434  -28.0576 H   0  0  0  0  0  0  0  0  0  0  0  0
  -15.2317  -24.8509  -25.8318 H   0  0  0  0  0  0  0  0  0  0  0  0
  -15.5351  -23.8938  -27.3213 H   0  0  0  0  0  0  0  0  0  0  0  0
  -14.2841  -25.1829  -27.3213 H   0  0  0  0  0  0  0  0  0  0  0  0
  1  6  1  0
  1  2  2  0
  2  3  1  0
  2 12  1  0
  3  4  1  0
  4  5  2  0
  4  7  1  0
  6  7  2  0
  6 11  1  0
  7  8  1  0
  8  9  2  0
  9 10  1  0
 10 11  2  0
 12 13  2  0
 12 17  1  0
 13 14  1  0
 14 15  2  0
 15 16  1  0
 15 18  1  0
 16 17  2  0
 18 19  1  0
 18 20  1  0
 18 21  1  0
  3 22  1  0
  8 23  1  0
  9 24  1  0
 10 25  1  0
 11 26  1  0
 13 27  1  0
 14 28  1  0
 16 29  1  0
 17 30  1  0
 19 31  1  0
 19 32  1  0
 19 33  1  0
 20 34  1  0
 20 35  1  0
 20 36  1  0
 21 37  1  0
 21 38  1  0
 21 39  1  0
M  END
>  <s_m_entry_id>  (26) 
2353

>  <MODEL>  (26) 
1

>  <REMARK>  (26) 
 VINA RESULT:   -11.211      0.000      0.000
 INTER + INTRA:         -13.016
 INTER:                 -12.521
 INTRA:                  -0.494
 UNBOUND:                -0.494
  Name = 3a
  5 active torsions:
  status: ('A' for Active; 'I' for Inactive)
    1  A    between atoms: C_2  and  C_6
    2  A    between atoms: C_9  and  C_12
    3  A    between atoms: C_12  and  C_19
    4  A    between atoms: C_12  and  C_20
    5  A    between atoms: C_12  and  C_21
                            x       y       z     vdW  Elec       q    Type
                         _______ _______ _______ _____ _____    ______ ____

>  <TORSDO>  (26) 
F 2

>  <s_m_Source_Path>  (26) 
/projects/mai/users/kmzp800_harry/pmx_colab/docking_jobs/tnks2/vina_prep/output

>  <s_m_Source_File>  (26) 
tnks_naive_vina.sdf

>  <i_m_Source_File_Index>  (26) 
26

$$$$
1a
     RDKit          3D

 27 29  0  0  1  0  0  0  0  0999 V2000
  -14.7710  -17.2630  -26.4840 N   0  0  0  0  0  0  0  0  0  0  0  0
  -15.0030  -15.8860  -26.5120 C   0  0  0  0  0  0  0  0  0  0  0  0
  -15.7750  -15.2830  -25.5080 C   0  0  0  0  0  0  0  0  0  0  0  0
  -15.3740  -13.1500  -26.5140 C   0  0  0  0  0  0  0  0  0  0  0  0
  -14.6220  -13.7350  -27.5240 C   0  0  0  0  0  0  0  0  0  0  0  0
  -15.9630  -13.9030  -25.5040 C   0  0  0  0  0  0  0  0  0  0  0  0
  -14.4490  -15.1160  -27.5460 C   0  0  0  0  0  0  0  0  0  0  0  0
  -16.4130  -16.1650  -24.4540 C   0  0  0  0  0  0  0  0  0  0  0  0
  -16.0640  -17.4720  -24.6110 N   0  0  0  0  0  0  0  0  0  0  0  0
  -15.2580  -18.0380  -25.5790 C   0  0  0  0  0  0  0  0  0  0  0  0
  -17.1890  -15.7990  -23.5700 O   0  0  0  0  0  0  0  0  0  0  0  0
  -15.0020  -19.4880  -25.5990 C   0  0  0  0  0  0  0  0  0  0  0  0
  -14.8870  -20.1390  -26.8360 C   0  0  0  0  0  0  0  0  0  0  0  0
  -14.8650  -20.2260  -24.4190 C   0  0  0  0  0  0  0  0  0  0  0  0
  -14.6350  -21.4950  -26.8940 C   0  0  0  0  0  0  0  0  0  0  0  0
  -14.5920  -21.5860  -24.4810 C   0  0  0  0  0  0  0  0  0  0  0  0
  -14.4770  -22.2290  -25.7210 C   0  0  0  0  0  0  0  0  0  0  0  0
  -15.5079  -12.0582  -26.5127 H   0  0  0  0  0  0  0  0  0  0  0  0
  -14.1644  -13.1091  -28.3043 H   0  0  0  0  0  0  0  0  0  0  0  0
  -16.5638  -13.4196  -24.7196 H   0  0  0  0  0  0  0  0  0  0  0  0
  -13.8871  -15.5960  -28.3608 H   0  0  0  0  0  0  0  0  0  0  0  0
  -16.4527  -18.1248  -23.9156 H   0  0  0  0  0  0  0  0  0  0  0  0
  -14.9985  -19.5644  -27.7674 H   0  0  0  0  0  0  0  0  0  0  0  0
  -14.9733  -19.7298  -23.4433 H   0  0  0  0  0  0  0  0  0  0  0  0
  -14.5588  -21.9973  -27.8696 H   0  0  0  0  0  0  0  0  0  0  0  0
  -14.4653  -22.1616  -23.5522 H   0  0  0  0  0  0  0  0  0  0  0  0
  -14.2632  -23.3070  -25.7675 H   0  0  0  0  0  0  0  0  0  0  0  0
  1 10  2  0
  1  2  1  0
  2  3  2  0
  2  7  1  0
  3  6  1  0
  3  8  1  0
  4  6  2  0
  4  5  1  0
  5  7  2  0
  8 11  2  0
  8  9  1  0
  9 10  1  0
 10 12  1  0
 12 14  1  0
 12 13  2  0
 13 15  1  0
 14 16  2  0
 15 17  2  0
 16 17  1  0
  4 18  1  0
  5 19  1  0
  6 20  1  0
  7 21  1  0
  9 22  1  0
 13 23  1  0
 14 24  1  0
 15 25  1  0
 16 26  1  0
 17 27  1  0
M  END
>  <s_m_entry_id>  (27) 
2354

>  <MODEL>  (27) 
1

>  <REMARK>  (27) 
 VINA RESULT:   -10.499      0.000      0.000
 INTER + INTRA:         -11.326
 INTER:                 -11.113
 INTRA:                  -0.213
 UNBOUND:                -0.213
  Name = 1a
  1 active torsions:
  status: ('A' for Active; 'I' for Inactive)
    1  A    between atoms: C_1  and  C_16
                            x       y       z     vdW  Elec       q    Type
                         _______ _______ _______ _____ _____    ______ ____

>  <TORSDO>  (27) 
F 1

>  <s_m_Source_Path>  (27) 
/projects/mai/users/kmzp800_harry/pmx_colab/docking_jobs/tnks2/vina_prep/output

>  <s_m_Source_File>  (27) 
tnks_naive_vina.sdf

>  <i_m_Source_File_Index>  (27) 
27

$$$$
