5o
     RDKit          3D

 47 49  0  0  1  0  0  0  0  0999 V2000
  -14.7630  -19.1720  -25.8460 C   0  0  0  0  0  0  0  0  0  0  0  0
  -14.9940  -19.8560  -27.0460 C   0  0  0  0  0  0  0  0  0  0  0  0
  -14.2240  -19.8780  -24.7630 C   0  0  0  0  0  0  0  0  0  0  0  0
  -14.6970  -21.2100  -27.1480 C   0  0  0  0  0  0  0  0  0  0  0  0
  -13.9090  -21.2270  -24.8770 C   0  0  0  0  0  0  0  0  0  0  0  0
  -14.1280  -21.9110  -26.0740 C   0  0  0  0  0  0  0  0  0  0  0  0
  -14.7580  -16.8450  -26.5660 N   0  0  0  0  0  0  0  0  0  0  0  0
  -15.0400  -15.4760  -26.4030 C   0  0  0  0  0  0  0  0  0  0  0  0
  -15.7600  -15.0340  -25.2830 C   0  0  0  0  0  0  0  0  0  0  0  0
  -15.6040  -12.7590  -26.0740 C   0  0  0  0  0  0  0  0  0  0  0  0
  -14.8880  -13.1940  -27.1830 C   0  0  0  0  0  0  0  0  0  0  0  0
  -16.0430  -13.6740  -25.1140 C   0  0  0  0  0  0  0  0  0  0  0  0
  -14.6060  -14.5470  -27.3640 C   0  0  0  0  0  0  0  0  0  0  0  0
  -16.2170  -16.0610  -24.2690 C   0  0  0  0  0  0  0  0  0  0  0  0
  -15.8370  -17.3210  -24.6070 N   0  0  0  0  0  0  0  0  0  0  0  0
  -15.1080  -17.7390  -25.7030 C   0  0  0  0  0  0  0  0  0  0  0  0
  -16.8760  -15.8430  -23.2530 O   0  0  0  0  0  0  0  0  0  0  0  0
  -13.8290  -14.9710  -28.5970 C   0  0  0  0  0  0  0  0  0  0  0  0
  -15.8830  -11.4410  -25.9620 F   0  0  0  0  0  0  0  0  0  0  0  0
  -13.7910  -23.4150  -26.2060 C   0  0  0  0  0  0  0  0  0  0  0  0
  -15.0650  -24.1700  -26.6280 C   0  0  0  0  0  0  0  0  0  0  0  0
  -13.2250  -23.8870  -24.8630 C   0  0  0  0  0  0  0  0  0  0  0  0
  -12.7410  -23.5980  -27.1820 O   0  0  0  0  0  0  0  0  0  0  0  0
  -12.3490  -24.9050  -27.6410 C   0  0  0  0  0  0  0  0  0  0  0  0
  -11.1070  -24.9900  -28.5550 C   0  0  0  0  0  0  0  0  0  0  0  0
  -11.0170  -23.8950  -29.4330 O   0  0  0  0  0  0  0  0  0  0  0  0
  -15.4119  -19.3199  -27.9108 H   0  0  0  0  0  0  0  0  0  0  0  0
  -14.0477  -19.3581  -23.8098 H   0  0  0  0  0  0  0  0  0  0  0  0
  -14.9118  -21.7412  -28.0870 H   0  0  0  0  0  0  0  0  0  0  0  0
  -13.4827  -21.7611  -24.0150 H   0  0  0  0  0  0  0  0  0  0  0  0
  -14.5398  -12.4620  -27.9266 H   0  0  0  0  0  0  0  0  0  0  0  0
  -16.6055  -13.3289  -24.2340 H   0  0  0  0  0  0  0  0  0  0  0  0
  -16.1324  -18.0646  -23.9584 H   0  0  0  0  0  0  0  0  0  0  0  0
  -12.9018  -15.4770  -28.2901 H   0  0  0  0  0  0  0  0  0  0  0  0
  -14.4413  -15.6601  -29.1973 H   0  0  0  0  0  0  0  0  0  0  0  0
  -13.5808  -14.0833  -29.1973 H   0  0  0  0  0  0  0  0  0  0  0  0
  -15.6129  -24.4947  -25.7311 H   0  0  0  0  0  0  0  0  0  0  0  0
  -15.7040  -23.5047  -27.2272 H   0  0  0  0  0  0  0  0  0  0  0  0
  -14.7882  -25.0500  -27.2272 H   0  0  0  0  0  0  0  0  0  0  0  0
  -13.7878  -23.4177  -24.0426 H   0  0  0  0  0  0  0  0  0  0  0  0
  -13.3156  -24.9809  -24.7910 H   0  0  0  0  0  0  0  0  0  0  0  0
  -12.1652  -23.6013  -24.7910 H   0  0  0  0  0  0  0  0  0  0  0  0
  -12.1483  -25.5212  -26.7522 H   0  0  0  0  0  0  0  0  0  0  0  0
  -13.1856  -25.2477  -28.2676 H   0  0  0  0  0  0  0  0  0  0  0  0
  -10.2051  -25.0144  -27.9257 H   0  0  0  0  0  0  0  0  0  0  0  0
  -11.1966  -25.9029  -29.1621 H   0  0  0  0  0  0  0  0  0  0  0  0
  -10.9482  -23.0573  -28.9099 H   0  0  0  0  0  0  0  0  0  0  0  0
  1 16  1  0
  1  3  1  0
  1  2  2  0
  2  4  1  0
  3  5  2  0
  4  6  2  0
  5  6  1  0
  6 20  1  0
  7  8  1  0
  7 16  2  0
  8  9  2  0
  8 13  1  0
  9 12  1  0
  9 14  1  0
 10 19  1  0
 10 12  2  0
 10 11  1  0
 11 13  2  0
 13 18  1  0
 14 17  2  0
 14 15  1  0
 15 16  1  0
 20 22  1  0
 20 21  1  0
 20 23  1  0
 23 24  1  0
 24 25  1  0
 25 26  1  0
  2 27  1  0
  3 28  1  0
  4 29  1  0
  5 30  1  0
 11 31  1  0
 12 32  1  0
 15 33  1  0
 18 34  1  0
 18 35  1  0
 18 36  1  0
 21 37  1  0
 21 38  1  0
 21 39  1  0
 22 40  1  0
 22 41  1  0
 22 42  1  0
 24 43  1  0
 24 44  1  0
 25 45  1  0
 25 46  1  0
 26 47  1  0
M  END
>  <s_m_entry_id>  (1) 
2384

>  <MODEL>  (1) 
2

>  <REMARK>  (1) 
 VINA RESULT:    -9.855      1.310      1.942
 INTER + INTRA:         -13.818
 INTER:                 -13.265
 INTRA:                  -0.553
 UNBOUND:                -0.795
  Name = 5o
  9 active torsions:
  status: ('A' for Active; 'I' for Inactive)
    1  A    between atoms: C_1  and  C_17
    2  A    between atoms: C_7  and  C_8
    3  A    between atoms: C_8  and  C_19
    4  A    between atoms: C_8  and  O_20
    5  A    between atoms: C_8  and  C_21
    6  A    between atoms: C_14  and  C_22
    7  A    between atoms: O_20  and  C_24
    8  A    between atoms: C_24  and  C_25
    9  A    between atoms: C_25  and  O_26
                            x       y       z     vdW  Elec       q    Type
                         _______ _______ _______ _____ _____    ______ ____

>  <TORSDO>  (1) 
F 6

>  <s_m_Source_Path>  (1) 
/projects/mai/users/kmzp800_harry/pmx_colab/docking_jobs/tnks2/vina_prep/output_mcs

>  <s_m_Source_File>  (1) 
tnks_mcs_vina__all_poses.sdf

>  <i_m_Source_File_Index>  (1) 
2

$$$$
5k
     RDKit          3D

 37 39  0  0  1  0  0  0  0  0999 V2000
  -14.4720  -14.8320  -27.5510 C   0  0  0  0  0  0  0  0  0  0  0  0
  -15.0190  -15.6000  -26.5160 C   0  0  0  0  0  0  0  0  0  0  0  0
  -14.6880  -13.4580  -27.5560 C   0  0  0  0  0  0  0  0  0  0  0  0
  -15.7990  -15.0030  -25.5160 C   0  0  0  0  0  0  0  0  0  0  0  0
  -14.7710  -16.9700  -26.4920 N   0  0  0  0  0  0  0  0  0  0  0  0
  -15.4460  -12.8740  -26.5450 C   0  0  0  0  0  0  0  0  0  0  0  0
  -16.0140  -13.6290  -25.5240 C   0  0  0  0  0  0  0  0  0  0  0  0
  -16.4050  -15.8840  -24.4440 C   0  0  0  0  0  0  0  0  0  0  0  0
  -16.0400  -17.1850  -24.5980 N   0  0  0  0  0  0  0  0  0  0  0  0
  -17.1630  -15.5170  -23.5460 O   0  0  0  0  0  0  0  0  0  0  0  0
  -15.2510  -17.7480  -25.5860 C   0  0  0  0  0  0  0  0  0  0  0  0
  -13.7270  -15.3950  -28.5320 F   0  0  0  0  0  0  0  0  0  0  0  0
  -15.6470  -11.5590  -26.5660 F   0  0  0  0  0  0  0  0  0  0  0  0
  -15.0030  -19.1950  -25.6160 C   0  0  0  0  0  0  0  0  0  0  0  0
  -13.7430  -19.7390  -25.3450 C   0  0  0  0  0  0  0  0  0  0  0  0
  -13.5490  -21.1100  -25.4470 C   0  0  0  0  0  0  0  0  0  0  0  0
  -14.6110  -21.9500  -25.7990 C   0  0  0  0  0  0  0  0  0  0  0  0
  -15.8710  -21.4120  -26.0320 C   0  0  0  0  0  0  0  0  0  0  0  0
  -16.0670  -20.0490  -25.9410 C   0  0  0  0  0  0  0  0  0  0  0  0
  -14.3670  -23.4360  -26.0260 C   0  0  0  0  0  0  0  0  0  0  0  0
  -15.6410  -24.1540  -26.4490 C   0  0  0  0  0  0  0  0  0  0  0  0
  -13.6930  -23.9880  -24.7740 C   0  0  0  0  0  0  0  0  0  0  0  0
  -13.5010  -23.7410  -27.0880 O   0  0  0  0  0  0  0  0  0  0  0  0
  -14.2614  -12.8351  -28.3560 H   0  0  0  0  0  0  0  0  0  0  0  0
  -16.6196  -13.1500  -24.7405 H   0  0  0  0  0  0  0  0  0  0  0  0
  -16.3978  -17.8372  -23.8856 H   0  0  0  0  0  0  0  0  0  0  0  0
  -12.9096  -19.0834  -25.0524 H   0  0  0  0  0  0  0  0  0  0  0  0
  -12.5550  -21.5380  -25.2500 H   0  0  0  0  0  0  0  0  0  0  0  0
  -16.7121  -22.0726  -26.2890 H   0  0  0  0  0  0  0  0  0  0  0  0
  -17.0667  -19.6286  -26.1250 H   0  0  0  0  0  0  0  0  0  0  0  0
  -16.1989  -24.4684  -25.5546 H   0  0  0  0  0  0  0  0  0  0  0  0
  -16.2633  -23.4738  -27.0490 H   0  0  0  0  0  0  0  0  0  0  0  0
  -15.3814  -25.0386  -27.0490 H   0  0  0  0  0  0  0  0  0  0  0  0
  -14.1896  -23.5813  -23.8807 H   0  0  0  0  0  0  0  0  0  0  0  0
  -13.7708  -25.0852  -24.7692 H   0  0  0  0  0  0  0  0  0  0  0  0
  -12.6326  -23.6955  -24.7692 H   0  0  0  0  0  0  0  0  0  0  0  0
  -12.6314  -24.0473  -26.7272 H   0  0  0  0  0  0  0  0  0  0  0  0
  1  2  2  0
  1  3  1  0
  1 12  1  0
  2  5  1  0
  2  4  1  0
  3  6  2  0
  4  8  1  0
  4  7  2  0
  5 11  2  0
  6  7  1  0
  6 13  1  0
  8 10  2  0
  8  9  1  0
  9 11  1  0
 11 14  1  0
 14 15  2  0
 14 19  1  0
 15 16  1  0
 16 17  2  0
 17 18  1  0
 17 20  1  0
 18 19  2  0
 20 22  1  0
 20 21  1  0
 20 23  1  0
  3 24  1  0
  7 25  1  0
  9 26  1  0
 15 27  1  0
 16 28  1  0
 18 29  1  0
 19 30  1  0
 21 31  1  0
 21 32  1  0
 21 33  1  0
 22 34  1  0
 22 35  1  0
 22 36  1  0
 23 37  1  0
M  END
>  <s_m_entry_id>  (2) 
2387

>  <MODEL>  (2) 
2

>  <REMARK>  (2) 
 VINA RESULT:    -9.730      0.853      1.062
 INTER + INTRA:         -11.598
 INTER:                 -11.152
 INTRA:                  -0.446
 UNBOUND:                -0.446
  Name = 5k
  5 active torsions:
  status: ('A' for Active; 'I' for Inactive)
    1  A    between atoms: C_11  and  C_12
    2  A    between atoms: C_15  and  C_18
    3  A    between atoms: C_18  and  O_19
    4  A    between atoms: C_18  and  C_22
    5  A    between atoms: C_18  and  C_23
                            x       y       z     vdW  Elec       q    Type
                         _______ _______ _______ _____ _____    ______ ____

>  <TORSDO>  (2) 
F 3

>  <s_m_Source_Path>  (2) 
/projects/mai/users/kmzp800_harry/pmx_colab/docking_jobs/tnks2/vina_prep/output_mcs

>  <s_m_Source_File>  (2) 
tnks_mcs_vina__all_poses.sdf

>  <i_m_Source_File_Index>  (2) 
5

$$$$
8f
     RDKit          3D

 48 51  0  0  1  0  0  0  0  0999 V2000
  -14.5030  -14.5890  -27.4240 C   0  0  0  0  0  0  0  0  0  0  0  0
  -15.0240  -15.4350  -26.4260 C   0  0  0  0  0  0  0  0  0  0  0  0
  -14.6310  -13.2060  -27.2820 C   0  0  0  0  0  0  0  0  0  0  0  0
  -15.7170  -14.8840  -25.3400 C   0  0  0  0  0  0  0  0  0  0  0  0
  -14.8370  -16.8280  -26.5140 N   0  0  0  0  0  0  0  0  0  0  0  0
  -15.2950  -12.6620  -26.1860 C   0  0  0  0  0  0  0  0  0  0  0  0
  -15.8560  -13.4960  -25.2140 C   0  0  0  0  0  0  0  0  0  0  0  0
  -16.3190  -15.8290  -24.3200 C   0  0  0  0  0  0  0  0  0  0  0  0
  -15.9580  -17.1240  -24.5480 N   0  0  0  0  0  0  0  0  0  0  0  0
  -17.0740  -15.5140  -23.4000 O   0  0  0  0  0  0  0  0  0  0  0  0
  -15.2550  -17.6570  -25.6140 C   0  0  0  0  0  0  0  0  0  0  0  0
  -13.7800  -15.1180  -28.6500 C   0  0  0  0  0  0  0  0  0  0  0  0
  -15.3940  -11.3190  -26.0830 F   0  0  0  0  0  0  0  0  0  0  0  0
  -15.0450  -19.1250  -25.7220 C   0  0  0  0  0  0  0  0  0  0  0  0
  -14.9500  -19.7190  -26.9900 C   0  0  0  0  0  0  0  0  0  0  0  0
  -14.7760  -21.0920  -27.1270 C   0  0  0  0  0  0  0  0  0  0  0  0
  -14.6820  -21.9120  -26.0000 C   0  0  0  0  0  0  0  0  0  0  0  0
  -14.7590  -21.3260  -24.7330 C   0  0  0  0  0  0  0  0  0  0  0  0
  -14.9450  -19.9510  -24.5920 C   0  0  0  0  0  0  0  0  0  0  0  0
  -14.6010  -23.4430  -26.1370 C   0  0  0  0  0  0  0  0  0  0  0  0
  -15.6720  -23.9460  -27.1080 C   0  0  0  0  0  0  0  0  0  0  0  0
  -15.6390  -25.4720  -27.2420 C   0  0  0  0  0  0  0  0  0  0  0  0
  -14.3150  -25.8370  -27.9190 N   0  0  0  0  0  0  0  0  0  0  0  0
  -13.1580  -25.4890  -26.9780 C   0  0  0  0  0  0  0  0  0  0  0  0
  -13.2100  -23.9890  -26.5390 C   0  0  0  0  0  0  0  0  0  0  0  0
  -14.2880  -27.3390  -28.2940 C   0  0  0  0  0  0  0  0  0  0  0  0
  -14.2025  -12.5389  -28.0445 H   0  0  0  0  0  0  0  0  0  0  0  0
  -16.4004  -13.0668  -24.3599 H   0  0  0  0  0  0  0  0  0  0  0  0
  -16.2490  -17.7991  -23.8266 H   0  0  0  0  0  0  0  0  0  0  0  0
  -12.9296  -15.7402  -28.3342 H   0  0  0  0  0  0  0  0  0  0  0  0
  -14.4737  -15.7234  -29.2520 H   0  0  0  0  0  0  0  0  0  0  0  0
  -13.4130  -14.2737  -29.2520 H   0  0  0  0  0  0  0  0  0  0  0  0
  -15.0142  -19.0889  -27.8894 H   0  0  0  0  0  0  0  0  0  0  0  0
  -14.7119  -21.5360  -28.1314 H   0  0  0  0  0  0  0  0  0  0  0  0
  -14.6718  -21.9572  -23.8363 H   0  0  0  0  0  0  0  0  0  0  0  0
  -15.0139  -19.5103  -23.5865 H   0  0  0  0  0  0  0  0  0  0  0  0
  -14.7850  -23.8361  -25.1263 H   0  0  0  0  0  0  0  0  0  0  0  0
  -16.6617  -23.6414  -26.7370 H   0  0  0  0  0  0  0  0  0  0  0  0
  -15.4722  -23.5090  -28.0975 H   0  0  0  0  0  0  0  0  0  0  0  0
  -15.6956  -25.9392  -26.2478 H   0  0  0  0  0  0  0  0  0  0  0  0
  -16.4933  -25.8311  -27.8346 H   0  0  0  0  0  0  0  0  0  0  0  0
  -13.2205  -26.1260  -26.0834 H   0  0  0  0  0  0  0  0  0  0  0  0
  -12.2128  -25.6599  -27.5141 H   0  0  0  0  0  0  0  0  0  0  0  0
  -12.8402  -23.3808  -27.3776 H   0  0  0  0  0  0  0  0  0  0  0  0
  -12.5950  -23.9269  -25.6291 H   0  0  0  0  0  0  0  0  0  0  0  0
  -14.2771  -27.9458  -27.3766 H   0  0  0  0  0  0  0  0  0  0  0  0
  -15.1819  -27.5853  -28.8859 H   0  0  0  0  0  0  0  0  0  0  0  0
  -13.3859  -27.5530  -28.8859 H   0  0  0  0  0  0  0  0  0  0  0  0
  1  3  2  0
  1  2  1  0
  1 12  1  0
  2  4  2  0
  2  5  1  0
  3  6  1  0
  4  7  1  0
  4  8  1  0
  5 11  2  0
  6 13  1  0
  6  7  2  0
  8 10  2  0
  8  9  1  0
  9 11  1  0
 11 14  1  0
 14 19  1  0
 14 15  2  0
 15 16  1  0
 16 17  2  0
 17 18  1  0
 17 20  1  0
 18 19  2  0
 20 21  1  0
 20 25  1  0
 21 22  1  0
 22 23  1  0
 23 24  1  0
 23 26  1  0
 24 25  1  0
  3 27  1  0
  7 28  1  0
  9 29  1  0
 12 30  1  0
 12 31  1  0
 12 32  1  0
 15 33  1  0
 16 34  1  0
 18 35  1  0
 19 36  1  0
 20 37  1  0
 21 38  1  0
 21 39  1  0
 22 40  1  0
 22 41  1  0
 24 42  1  0
 24 43  1  0
 25 44  1  0
 25 45  1  0
 26 46  1  0
 26 47  1  0
 26 48  1  0
M  END
>  <s_m_entry_id>  (3) 
2389

>  <MODEL>  (3) 
1

>  <REMARK>  (3) 
 VINA RESULT:   -11.833      0.000      0.000
 INTER + INTRA:         -13.677
 INTER:                 -13.189
 INTRA:                  -0.488
 UNBOUND:                -0.460
  Name = 8f
  4 active torsions:
  status: ('A' for Active; 'I' for Inactive)
    1  A    between atoms: C_1  and  C_18
    2  A    between atoms: C_11  and  C_12
    3  A    between atoms: C_15  and  C_20
    4  A    between atoms: N_23  and  C_26
                            x       y       z     vdW  Elec       q    Type
                         _______ _______ _______ _____ _____    ______ ____

>  <TORSDO>  (3) 
F 2

>  <s_m_Source_Path>  (3) 
/projects/mai/users/kmzp800_harry/pmx_colab/docking_jobs/tnks2/vina_prep/output_mcs

>  <s_m_Source_File>  (3) 
tnks_mcs_vina__all_poses.sdf

>  <i_m_Source_File_Index>  (3) 
7

$$$$
5g
     RDKit          3D

 37 39  0  0  1  0  0  0  0  0999 V2000
  -14.6260  -14.4350  -27.4090 C   0  0  0  0  0  0  0  0  0  0  0  0
  -15.0990  -15.3720  -26.4760 C   0  0  0  0  0  0  0  0  0  0  0  0
  -14.9100  -13.0810  -27.2220 C   0  0  0  0  0  0  0  0  0  0  0  0
  -15.9120  -14.9470  -25.4170 C   0  0  0  0  0  0  0  0  0  0  0  0
  -14.7310  -16.7250  -26.5850 N   0  0  0  0  0  0  0  0  0  0  0  0
  -15.6780  -12.6640  -26.1350 C   0  0  0  0  0  0  0  0  0  0  0  0
  -16.1990  -13.5970  -25.2370 C   0  0  0  0  0  0  0  0  0  0  0  0
  -16.4650  -15.9890  -24.4750 C   0  0  0  0  0  0  0  0  0  0  0  0
  -15.9460  -17.2190  -24.7120 N   0  0  0  0  0  0  0  0  0  0  0  0
  -17.3130  -15.8020  -23.6090 O   0  0  0  0  0  0  0  0  0  0  0  0
  -15.1210  -17.6210  -25.7400 C   0  0  0  0  0  0  0  0  0  0  0  0
  -13.6670  -14.9020  -28.7720 Cl  0  0  0  0  0  0  0  0  0  0  0  0
  -14.7630  -19.0460  -25.8570 C   0  0  0  0  0  0  0  0  0  0  0  0
  -14.1630  -19.6860  -24.7660 C   0  0  0  0  0  0  0  0  0  0  0  0
  -13.8390  -21.0290  -24.8300 C   0  0  0  0  0  0  0  0  0  0  0  0
  -14.0990  -21.7640  -25.9870 C   0  0  0  0  0  0  0  0  0  0  0  0
  -14.6700  -21.1260  -27.0930 C   0  0  0  0  0  0  0  0  0  0  0  0
  -15.0020  -19.7790  -27.0280 C   0  0  0  0  0  0  0  0  0  0  0  0
  -13.9000  -23.2780  -25.9960 C   0  0  0  0  0  0  0  0  0  0  0  0
  -12.9790  -23.7760  -27.1200 C   0  0  0  0  0  0  0  0  0  0  0  0
  -15.2890  -23.9150  -25.9980 C   0  0  0  0  0  0  0  0  0  0  0  0
  -13.2490  -23.7760  -24.8560 O   0  0  0  0  0  0  0  0  0  0  0  0
  -14.5256  -12.3382  -27.9365 H   0  0  0  0  0  0  0  0  0  0  0  0
  -15.8745  -11.5922  -25.9843 H   0  0  0  0  0  0  0  0  0  0  0  0
  -16.8290  -13.2692  -24.3970 H   0  0  0  0  0  0  0  0  0  0  0  0
  -16.2025  -17.9502  -24.0334 H   0  0  0  0  0  0  0  0  0  0  0  0
  -13.9475  -19.1160  -23.8502 H   0  0  0  0  0  0  0  0  0  0  0  0
  -13.3734  -21.5208  -23.9632 H   0  0  0  0  0  0  0  0  0  0  0  0
  -14.8567  -21.6928  -28.0171 H   0  0  0  0  0  0  0  0  0  0  0  0
  -15.4549  -19.2846  -27.9000 H   0  0  0  0  0  0  0  0  0  0  0  0
  -12.0916  -24.2558  -26.6814 H   0  0  0  0  0  0  0  0  0  0  0  0
  -13.5201  -24.5044  -27.7417 H   0  0  0  0  0  0  0  0  0  0  0  0
  -12.6657  -22.9244  -27.7417 H   0  0  0  0  0  0  0  0  0  0  0  0
  -15.6235  -24.0684  -24.9614 H   0  0  0  0  0  0  0  0  0  0  0  0
  -15.9961  -23.2512  -26.5170 H   0  0  0  0  0  0  0  0  0  0  0  0
  -15.2473  -24.8840  -26.5170 H   0  0  0  0  0  0  0  0  0  0  0  0
  -13.6979  -23.4326  -24.0432 H   0  0  0  0  0  0  0  0  0  0  0  0
  1  3  2  0
  1  2  1  0
  1 12  1  0
  2  4  2  0
  2  5  1  0
  3  6  1  0
  4  7  1  0
  4  8  1  0
  5 11  2  0
  6  7  2  0
  8 10  2  0
  8  9  1  0
  9 11  1  0
 11 13  1  0
 13 14  2  0
 13 18  1  0
 14 15  1  0
 15 16  2  0
 16 17  1  0
 16 19  1  0
 17 18  2  0
 19 22  1  0
 19 20  1  0
 19 21  1  0
  3 23  1  0
  6 24  1  0
  7 25  1  0
  9 26  1  0
 14 27  1  0
 15 28  1  0
 17 29  1  0
 18 30  1  0
 20 31  1  0
 20 32  1  0
 20 33  1  0
 21 34  1  0
 21 35  1  0
 21 36  1  0
 22 37  1  0
M  END
>  <s_m_entry_id>  (4) 
2391

>  <MODEL>  (4) 
1

>  <REMARK>  (4) 
 VINA RESULT:   -10.996      0.000      0.000
 INTER + INTRA:         -13.047
 INTER:                 -12.605
 INTRA:                  -0.442
 UNBOUND:                -0.445
  Name = 5g
  5 active torsions:
  status: ('A' for Active; 'I' for Inactive)
    1  A    between atoms: C_11  and  C_12
    2  A    between atoms: C_15  and  C_18
    3  A    between atoms: C_18  and  O_19
    4  A    between atoms: C_18  and  C_20
    5  A    between atoms: C_18  and  C_21
                            x       y       z     vdW  Elec       q    Type
                         _______ _______ _______ _____ _____    ______ ____

>  <TORSDO>  (4) 
F 3

>  <s_m_Source_Path>  (4) 
/projects/mai/users/kmzp800_harry/pmx_colab/docking_jobs/tnks2/vina_prep/output_mcs

>  <s_m_Source_File>  (4) 
tnks_mcs_vina__all_poses.sdf

>  <i_m_Source_File_Index>  (4) 
9

$$$$
8b
     RDKit          3D

 47 50  0  0  1  0  0  0  0  0999 V2000
  -14.5150  -14.5960  -27.3900 C   0  0  0  0  0  0  0  0  0  0  0  0
  -15.0310  -15.4450  -26.3930 C   0  0  0  0  0  0  0  0  0  0  0  0
  -14.6620  -13.2150  -27.2550 C   0  0  0  0  0  0  0  0  0  0  0  0
  -15.7400  -14.8990  -25.3140 C   0  0  0  0  0  0  0  0  0  0  0  0
  -14.8250  -16.8360  -26.4740 N   0  0  0  0  0  0  0  0  0  0  0  0
  -15.3420  -12.6750  -26.1660 C   0  0  0  0  0  0  0  0  0  0  0  0
  -15.8980  -13.5130  -25.1950 C   0  0  0  0  0  0  0  0  0  0  0  0
  -16.3360  -15.8480  -24.2950 C   0  0  0  0  0  0  0  0  0  0  0  0
  -15.9560  -17.1400  -24.5150 N   0  0  0  0  0  0  0  0  0  0  0  0
  -17.1020  -15.5400  -23.3820 O   0  0  0  0  0  0  0  0  0  0  0  0
  -15.2390  -17.6670  -25.5730 C   0  0  0  0  0  0  0  0  0  0  0  0
  -15.4590  -11.3330  -26.0700 F   0  0  0  0  0  0  0  0  0  0  0  0
  -13.7950  -15.1940  -28.6140 C   0  0  0  0  0  0  0  0  0  0  0  0
  -15.0070  -19.1320  -25.6730 C   0  0  0  0  0  0  0  0  0  0  0  0
  -14.9140  -19.7330  -26.9380 C   0  0  0  0  0  0  0  0  0  0  0  0
  -14.7220  -21.1040  -27.0680 C   0  0  0  0  0  0  0  0  0  0  0  0
  -14.6060  -21.9150  -25.9360 C   0  0  0  0  0  0  0  0  0  0  0  0
  -14.6810  -21.3220  -24.6720 C   0  0  0  0  0  0  0  0  0  0  0  0
  -14.8850  -19.9490  -24.5390 C   0  0  0  0  0  0  0  0  0  0  0  0
  -14.5130  -23.2870  -26.0510 N   0  0  0  0  0  0  0  0  0  0  0  0
  -15.5300  -23.8040  -27.0730 C   0  0  0  0  0  0  0  0  0  0  0  0
  -15.4740  -25.3300  -27.2010 C   0  0  0  0  0  0  0  0  0  0  0  0
  -14.1150  -25.6830  -27.8090 N   0  0  0  0  0  0  0  0  0  0  0  0
  -13.0110  -25.3210  -26.8130 C   0  0  0  0  0  0  0  0  0  0  0  0
  -13.0990  -23.8210  -26.3820 C   0  0  0  0  0  0  0  0  0  0  0  0
  -14.0550  -27.1860  -28.1790 C   0  0  0  0  0  0  0  0  0  0  0  0
  -14.2362  -12.5455  -28.0169 H   0  0  0  0  0  0  0  0  0  0  0  0
  -16.4538  -13.0879  -24.3463 H   0  0  0  0  0  0  0  0  0  0  0  0
  -16.2431  -17.8161  -23.7929 H   0  0  0  0  0  0  0  0  0  0  0  0
  -12.9899  -15.8627  -28.2753 H   0  0  0  0  0  0  0  0  0  0  0  0
  -14.5144  -15.7640  -29.2203 H   0  0  0  0  0  0  0  0  0  0  0  0
  -13.3667  -14.3822  -29.2203 H   0  0  0  0  0  0  0  0  0  0  0  0
  -14.9943  -19.1096  -27.8407 H   0  0  0  0  0  0  0  0  0  0  0  0
  -14.6609  -21.5538  -28.0700 H   0  0  0  0  0  0  0  0  0  0  0  0
  -14.5779  -21.9459  -23.7719 H   0  0  0  0  0  0  0  0  0  0  0  0
  -14.9509  -19.5024  -23.5359 H   0  0  0  0  0  0  0  0  0  0  0  0
  -16.5401  -23.5094  -26.7521 H   0  0  0  0  0  0  0  0  0  0  0  0
  -15.2863  -23.3671  -28.0526 H   0  0  0  0  0  0  0  0  0  0  0  0
  -15.5757  -25.7954  -26.2095 H   0  0  0  0  0  0  0  0  0  0  0  0
  -16.2935  -25.6992  -27.8352 H   0  0  0  0  0  0  0  0  0  0  0  0
  -13.1122  -25.9560  -25.9205 H   0  0  0  0  0  0  0  0  0  0  0  0
  -12.0386  -25.4839  -27.3007 H   0  0  0  0  0  0  0  0  0  0  0  0
  -12.6939  -23.2116  -27.2032 H   0  0  0  0  0  0  0  0  0  0  0  0
  -12.5306  -23.7508  -25.4429 H   0  0  0  0  0  0  0  0  0  0  0  0
  -14.0309  -27.7893  -27.2595 H   0  0  0  0  0  0  0  0  0  0  0  0
  -14.9432  -27.4538  -28.7701 H   0  0  0  0  0  0  0  0  0  0  0  0
  -13.1483  -27.3822  -28.7701 H   0  0  0  0  0  0  0  0  0  0  0  0
  1  3  2  0
  1  2  1  0
  1 13  1  0
  2  4  2  0
  2  5  1  0
  3  6  1  0
  4  7  1  0
  4  8  1  0
  5 11  2  0
  6 12  1  0
  6  7  2  0
  8 10  2  0
  8  9  1  0
  9 11  1  0
 11 14  1  0
 14 19  1  0
 14 15  2  0
 15 16  1  0
 16 17  2  0
 17 18  1  0
 17 20  1  0
 18 19  2  0
 20 21  1  0
 20 25  1  0
 21 22  1  0
 22 23  1  0
 23 24  1  0
 23 26  1  0
 24 25  1  0
  3 27  1  0
  7 28  1  0
  9 29  1  0
 13 30  1  0
 13 31  1  0
 13 32  1  0
 15 33  1  0
 16 34  1  0
 18 35  1  0
 19 36  1  0
 21 37  1  0
 21 38  1  0
 22 39  1  0
 22 40  1  0
 24 41  1  0
 24 42  1  0
 25 43  1  0
 25 44  1  0
 26 45  1  0
 26 46  1  0
 26 47  1  0
M  END
>  <s_m_entry_id>  (5) 
2393

>  <MODEL>  (5) 
1

>  <REMARK>  (5) 
 VINA RESULT:   -11.218      0.000      0.000
 INTER + INTRA:         -12.911
 INTER:                 -12.496
 INTRA:                  -0.415
 UNBOUND:                -0.381
  Name = 8b
  4 active torsions:
  status: ('A' for Active; 'I' for Inactive)
    1  A    between atoms: C_1  and  C_45
    2  A    between atoms: C_11  and  C_12
    3  A    between atoms: C_15  and  N_19
    4  A    between atoms: N_22  and  C_25
                            x       y       z     vdW  Elec       q    Type
                         _______ _______ _______ _____ _____    ______ ____

>  <TORSDO>  (5) 
F 2

>  <s_m_Source_Path>  (5) 
/projects/mai/users/kmzp800_harry/pmx_colab/docking_jobs/tnks2/vina_prep/output_mcs

>  <s_m_Source_File>  (5) 
tnks_mcs_vina__all_poses.sdf

>  <i_m_Source_File_Index>  (5) 
11

$$$$
8e
     RDKit          3D

 45 48  0  0  1  0  0  0  0  0999 V2000
  -16.3100  -15.6330  -24.0560 C   0  0  0  0  0  0  0  0  0  0  0  0
  -15.6670  -16.2720  -25.1290 C   0  0  0  0  0  0  0  0  0  0  0  0
  -16.4880  -14.2500  -24.0830 C   0  0  0  0  0  0  0  0  0  0  0  0
  -15.1640  -15.5030  -26.1910 C   0  0  0  0  0  0  0  0  0  0  0  0
  -15.5400  -17.6760  -25.1370 N   0  0  0  0  0  0  0  0  0  0  0  0
  -16.0150  -13.4960  -25.1550 C   0  0  0  0  0  0  0  0  0  0  0  0
  -15.3380  -14.1140  -26.2100 C   0  0  0  0  0  0  0  0  0  0  0  0
  -14.4310  -16.2160  -27.3090 C   0  0  0  0  0  0  0  0  0  0  0  0
  -14.3760  -17.5630  -27.1050 N   0  0  0  0  0  0  0  0  0  0  0  0
  -13.9090  -15.6820  -28.2900 O   0  0  0  0  0  0  0  0  0  0  0  0
  -14.9330  -18.3160  -26.0830 C   0  0  0  0  0  0  0  0  0  0  0  0
  -16.7780  -16.3260  -22.9970 F   0  0  0  0  0  0  0  0  0  0  0  0
  -16.2140  -12.1590  -25.1590 F   0  0  0  0  0  0  0  0  0  0  0  0
  -14.7830  -19.7960  -26.0900 C   0  0  0  0  0  0  0  0  0  0  0  0
  -13.9360  -20.4170  -25.1590 C   0  0  0  0  0  0  0  0  0  0  0  0
  -13.7540  -21.7980  -25.1650 C   0  0  0  0  0  0  0  0  0  0  0  0
  -14.4240  -22.6020  -26.0930 C   0  0  0  0  0  0  0  0  0  0  0  0
  -15.2880  -21.9910  -27.0080 C   0  0  0  0  0  0  0  0  0  0  0  0
  -15.4600  -20.6070  -27.0140 C   0  0  0  0  0  0  0  0  0  0  0  0
  -14.1490  -24.0960  -26.1900 C   0  0  0  0  0  0  0  0  0  0  0  0
  -14.9670  -24.7220  -27.3260 C   0  0  0  0  0  0  0  0  0  0  0  0
  -14.6080  -26.2070  -27.5110 C   0  0  0  0  0  0  0  0  0  0  0  0
  -13.1740  -26.3430  -27.7870 N   0  0  0  0  0  0  0  0  0  0  0  0
  -12.3860  -25.8550  -26.6500 C   0  0  0  0  0  0  0  0  0  0  0  0
  -12.6560  -24.3550  -26.4310 C   0  0  0  0  0  0  0  0  0  0  0  0
  -12.8600  -27.7620  -28.0170 C   0  0  0  0  0  0  0  0  0  0  0  0
  -17.0061  -13.7504  -23.2512 H   0  0  0  0  0  0  0  0  0  0  0  0
  -14.9463  -13.5158  -27.0459 H   0  0  0  0  0  0  0  0  0  0  0  0
  -13.8461  -18.0960  -27.8093 H   0  0  0  0  0  0  0  0  0  0  0  0
  -13.4081  -19.8041  -24.4136 H   0  0  0  0  0  0  0  0  0  0  0  0
  -13.0765  -22.2610  -24.4325 H   0  0  0  0  0  0  0  0  0  0  0  0
  -15.8386  -22.6099  -27.7318 H   0  0  0  0  0  0  0  0  0  0  0  0
  -16.1338  -20.1459  -27.7511 H   0  0  0  0  0  0  0  0  0  0  0  0
  -14.4449  -24.5582  -25.2367 H   0  0  0  0  0  0  0  0  0  0  0  0
  -16.0374  -24.6378  -27.0871 H   0  0  0  0  0  0  0  0  0  0  0  0
  -14.7371  -24.1871  -28.2593 H   0  0  0  0  0  0  0  0  0  0  0  0
  -14.8568  -26.7595  -26.5930 H   0  0  0  0  0  0  0  0  0  0  0  0
  -15.1801  -26.6153  -28.3572 H   0  0  0  0  0  0  0  0  0  0  0  0
  -12.6681  -26.4124  -25.7446 H   0  0  0  0  0  0  0  0  0  0  0  0
  -11.3165  -26.0037  -26.8599 H   0  0  0  0  0  0  0  0  0  0  0  0
  -12.3332  -23.7972  -27.3224 H   0  0  0  0  0  0  0  0  0  0  0  0
  -12.0946  -24.0229  -25.5453 H   0  0  0  0  0  0  0  0  0  0  0  0
  -12.7467  -28.2739  -27.0500 H   0  0  0  0  0  0  0  0  0  0  0  0
  -13.6762  -28.2305  -28.5865 H   0  0  0  0  0  0  0  0  0  0  0  0
  -11.9223  -27.8424  -28.5865 H   0  0  0  0  0  0  0  0  0  0  0  0
  1 12  1  0
  1  2  2  0
  1  3  1  0
  2  4  1  0
  2  5  1  0
  3  6  2  0
  4  7  2  0
  4  8  1  0
  5 11  2  0
  6  7  1  0
  6 13  1  0
  8  9  1  0
  8 10  2  0
  9 11  1  0
 11 14  1  0
 14 15  2  0
 14 19  1  0
 15 16  1  0
 16 17  2  0
 17 18  1  0
 17 20  1  0
 18 19  2  0
 20 21  1  0
 20 25  1  0
 21 22  1  0
 22 23  1  0
 23 24  1  0
 23 26  1  0
 24 25  1  0
  3 27  1  0
  7 28  1  0
  9 29  1  0
 15 30  1  0
 16 31  1  0
 18 32  1  0
 19 33  1  0
 20 34  1  0
 21 35  1  0
 21 36  1  0
 22 37  1  0
 22 38  1  0
 24 39  1  0
 24 40  1  0
 25 41  1  0
 25 42  1  0
 26 43  1  0
 26 44  1  0
 26 45  1  0
M  END
>  <s_m_entry_id>  (6) 
2394

>  <MODEL>  (6) 
1

>  <REMARK>  (6) 
 VINA RESULT:    -8.015      0.000      0.000
 INTER + INTRA:          -9.456
 INTER:                  -8.956
 INTRA:                  -0.500
 UNBOUND:                -0.503
  Name = 8e
  3 active torsions:
  status: ('A' for Active; 'I' for Inactive)
    1  A    between atoms: C_11  and  C_12
    2  A    between atoms: C_15  and  C_20
    3  A    between atoms: N_23  and  C_26
                            x       y       z     vdW  Elec       q    Type
                         _______ _______ _______ _____ _____    ______ ____

>  <TORSDO>  (6) 
F 2

>  <s_m_Source_Path>  (6) 
/projects/mai/users/kmzp800_harry/pmx_colab/docking_jobs/tnks2/vina_prep/output_mcs

>  <s_m_Source_File>  (6) 
tnks_mcs_vina__all_poses.sdf

>  <i_m_Source_File_Index>  (6) 
12

$$$$
7
     RDKit          3D

 36 38  0  0  1  0  0  0  0  0999 V2000
  -15.0770  -17.8070  -25.7270 C   0  0  0  0  0  0  0  0  0  0  0  0
  -15.7940  -17.3110  -24.6490 N   0  0  0  0  0  0  0  0  0  0  0  0
  -16.1440  -16.0270  -24.3680 C   0  0  0  0  0  0  0  0  0  0  0  0
  -14.7070  -16.9670  -26.6380 N   0  0  0  0  0  0  0  0  0  0  0  0
  -14.9620  -15.5930  -26.5300 C   0  0  0  0  0  0  0  0  0  0  0  0
  -15.6510  -15.0640  -25.4300 C   0  0  0  0  0  0  0  0  0  0  0  0
  -15.8640  -13.6850  -25.3280 C   0  0  0  0  0  0  0  0  0  0  0  0
  -15.3850  -12.8460  -26.3400 C   0  0  0  0  0  0  0  0  0  0  0  0
  -14.7120  -13.3770  -27.4410 C   0  0  0  0  0  0  0  0  0  0  0  0
  -14.5020  -14.7520  -27.5420 C   0  0  0  0  0  0  0  0  0  0  0  0
  -16.8010  -15.7390  -23.3660 O   0  0  0  0  0  0  0  0  0  0  0  0
  -15.5710  -11.5100  -26.2670 F   0  0  0  0  0  0  0  0  0  0  0  0
  -14.7680  -19.2530  -25.8020 C   0  0  0  0  0  0  0  0  0  0  0  0
  -14.1700  -19.9150  -24.7230 N   0  0  0  0  0  0  0  0  0  0  0  0
  -15.0540  -19.9830  -26.9660 C   0  0  0  0  0  0  0  0  0  0  0  0
  -13.8680  -21.2670  -24.8090 C   0  0  0  0  0  0  0  0  0  0  0  0
  -14.7790  -21.3460  -27.0390 C   0  0  0  0  0  0  0  0  0  0  0  0
  -14.1870  -22.0090  -25.9580 C   0  0  0  0  0  0  0  0  0  0  0  0
  -13.8340  -23.5130  -26.0430 C   0  0  0  0  0  0  0  0  0  0  0  0
  -12.8900  -23.7390  -27.2440 C   0  0  0  0  0  0  0  0  0  0  0  0
  -15.1530  -24.2820  -26.1770 C   0  0  0  0  0  0  0  0  0  0  0  0
  -13.2590  -23.9400  -24.7900 O   0  0  0  0  0  0  0  0  0  0  0  0
  -16.1057  -18.0143  -23.9641 H   0  0  0  0  0  0  0  0  0  0  0  0
  -16.4007  -13.2662  -24.4640 H   0  0  0  0  0  0  0  0  0  0  0  0
  -14.3453  -12.7077  -28.2332 H   0  0  0  0  0  0  0  0  0  0  0  0
  -13.9772  -15.1698  -28.4138 H   0  0  0  0  0  0  0  0  0  0  0  0
  -15.5010  -19.4720  -27.8315 H   0  0  0  0  0  0  0  0  0  0  0  0
  -13.3709  -21.7653  -23.9637 H   0  0  0  0  0  0  0  0  0  0  0  0
  -15.0288  -21.9055  -27.9526 H   0  0  0  0  0  0  0  0  0  0  0  0
  -11.8814  -23.9805  -26.8773 H   0  0  0  0  0  0  0  0  0  0  0  0
  -13.2672  -24.5722  -27.8551 H   0  0  0  0  0  0  0  0  0  0  0  0
  -12.8489  -22.8253  -27.8551 H   0  0  0  0  0  0  0  0  0  0  0  0
  -15.5469  -24.5116  -25.1759 H   0  0  0  0  0  0  0  0  0  0  0  0
  -15.8818  -23.6672  -26.7256 H   0  0  0  0  0  0  0  0  0  0  0  0
  -14.9770  -25.2190  -26.7256 H   0  0  0  0  0  0  0  0  0  0  0  0
  -13.7781  -23.5545  -24.0403 H   0  0  0  0  0  0  0  0  0  0  0  0
  1  2  1  0
  1  4  2  0
  1 13  1  0
  2  3  1  0
  3 11  2  0
  3  6  1  0
  4  5  1  0
  5  6  2  0
  5 10  1  0
  6  7  1  0
  7  8  2  0
  8 12  1  0
  8  9  1  0
  9 10  2  0
 13 14  2  0
 13 15  1  0
 14 16  1  0
 15 17  2  0
 16 18  2  0
 17 18  1  0
 18 19  1  0
 19 22  1  0
 19 20  1  0
 19 21  1  0
  2 23  1  0
  7 24  1  0
  9 25  1  0
 10 26  1  0
 15 27  1  0
 16 28  1  0
 17 29  1  0
 20 30  1  0
 20 31  1  0
 20 32  1  0
 21 33  1  0
 21 34  1  0
 21 35  1  0
 22 36  1  0
M  END
>  <s_m_entry_id>  (7) 
2415

>  <MODEL>  (7) 
1

>  <REMARK>  (7) 
 VINA RESULT:   -10.553      0.000      0.000
 INTER + INTRA:         -12.430
 INTER:                 -12.082
 INTRA:                  -0.348
 UNBOUND:                -0.334
  Name = 7
  5 active torsions:
  status: ('A' for Active; 'I' for Inactive)
    1  A    between atoms: C_1  and  C_4
    2  A    between atoms: C_7  and  C_18
    3  A    between atoms: C_18  and  O_19
    4  A    between atoms: C_18  and  C_21
    5  A    between atoms: C_18  and  C_22
                            x       y       z     vdW  Elec       q    Type
                         _______ _______ _______ _____ _____    ______ ____

>  <TORSDO>  (7) 
F 3

>  <s_m_Source_Path>  (7) 
/projects/mai/users/kmzp800_harry/pmx_colab/docking_jobs/tnks2/vina_prep/output_mcs

>  <s_m_Source_File>  (7) 
tnks_mcs_vina__all_poses.sdf

>  <i_m_Source_File_Index>  (7) 
33

$$$$
5c
     RDKit          3D

 37 39  0  0  1  0  0  0  0  0999 V2000
  -13.1080  -22.6470  -25.1340 C   0  0  0  0  0  0  0  0  0  0  0  0
  -14.2060  -21.9460  -25.6350 C   0  0  0  0  0  0  0  0  0  0  0  0
  -12.9850  -24.0110  -25.4070 C   0  0  0  0  0  0  0  0  0  0  0  0
  -15.2130  -22.6080  -26.3490 C   0  0  0  0  0  0  0  0  0  0  0  0
  -14.2630  -20.5600  -25.4490 N   0  0  0  0  0  0  0  0  0  0  0  0
  -13.9500  -24.6600  -26.1790 C   0  0  0  0  0  0  0  0  0  0  0  0
  -15.0630  -23.9580  -26.6520 C   0  0  0  0  0  0  0  0  0  0  0  0
  -16.4290  -21.8050  -26.7900 C   0  0  0  0  0  0  0  0  0  0  0  0
  -16.2830  -20.4940  -26.5310 N   0  0  0  0  0  0  0  0  0  0  0  0
  -17.4820  -22.2070  -27.2900 O   0  0  0  0  0  0  0  0  0  0  0  0
  -15.2490  -19.8520  -25.8940 C   0  0  0  0  0  0  0  0  0  0  0  0
  -16.2080  -24.7420  -27.6460 Cl  0  0  0  0  0  0  0  0  0  0  0  0
  -15.3480  -18.4050  -25.7330 C   0  0  0  0  0  0  0  0  0  0  0  0
  -14.6820  -17.5760  -26.6390 C   0  0  0  0  0  0  0  0  0  0  0  0
  -14.7590  -16.2040  -26.5040 C   0  0  0  0  0  0  0  0  0  0  0  0
  -15.4900  -15.6470  -25.4580 C   0  0  0  0  0  0  0  0  0  0  0  0
  -16.1660  -16.4710  -24.5570 C   0  0  0  0  0  0  0  0  0  0  0  0
  -16.0900  -17.8430  -24.6860 C   0  0  0  0  0  0  0  0  0  0  0  0
  -15.6160  -14.1410  -25.3430 C   0  0  0  0  0  0  0  0  0  0  0  0
  -16.9100  -13.6300  -25.9260 C   0  0  0  0  0  0  0  0  0  0  0  0
  -14.3640  -13.5030  -25.9240 C   0  0  0  0  0  0  0  0  0  0  0  0
  -15.7640  -13.6710  -24.0370 O   0  0  0  0  0  0  0  0  0  0  0  0
  -12.3473  -22.1304  -24.5303 H   0  0  0  0  0  0  0  0  0  0  0  0
  -12.1265  -24.5747  -25.0131 H   0  0  0  0  0  0  0  0  0  0  0  0
  -13.8345  -25.7279  -26.4162 H   0  0  0  0  0  0  0  0  0  0  0  0
  -17.0510  -19.8884  -26.8542 H   0  0  0  0  0  0  0  0  0  0  0  0
  -14.0965  -18.0161  -27.4596 H   0  0  0  0  0  0  0  0  0  0  0  0
  -14.2427  -15.5509  -27.2230 H   0  0  0  0  0  0  0  0  0  0  0  0
  -16.7593  -16.0270  -23.7441 H   0  0  0  0  0  0  0  0  0  0  0  0
  -16.6109  -18.4938  -23.9683 H   0  0  0  0  0  0  0  0  0  0  0  0
  -17.5973  -13.3586  -25.1112 H   0  0  0  0  0  0  0  0  0  0  0  0
  -16.7082  -12.7440  -26.5460 H   0  0  0  0  0  0  0  0  0  0  0  0
  -17.3680  -14.4148  -26.5460 H   0  0  0  0  0  0  0  0  0  0  0  0
  -13.7090  -13.1692  -25.1057 H   0  0  0  0  0  0  0  0  0  0  0  0
  -13.8308  -14.2393  -26.5433 H   0  0  0  0  0  0  0  0  0  0  0  0
  -14.6464  -12.6389  -26.5433 H   0  0  0  0  0  0  0  0  0  0  0  0
  -15.5367  -14.3929  -23.3988 H   0  0  0  0  0  0  0  0  0  0  0  0
  1  2  2  0
  1  3  1  0
  2  5  1  0
  2  4  1  0
  3  6  2  0
  4  7  2  0
  4  8  1  0
  5 11  2  0
  6  7  1  0
  7 12  1  0
  8  9  1  0
  8 10  2  0
  9 11  1  0
 11 13  1  0
 13 18  1  0
 13 14  2  0
 14 15  1  0
 15 16  2  0
 16 19  1  0
 16 17  1  0
 17 18  2  0
 19 22  1  0
 19 20  1  0
 19 21  1  0
  1 23  1  0
  3 24  1  0
  6 25  1  0
  9 26  1  0
 14 27  1  0
 15 28  1  0
 17 29  1  0
 18 30  1  0
 20 31  1  0
 20 32  1  0
 20 33  1  0
 21 34  1  0
 21 35  1  0
 21 36  1  0
 22 37  1  0
M  END
>  <s_m_entry_id>  (8) 
2417

>  <MODEL>  (8) 
1

>  <REMARK>  (8) 
 VINA RESULT:    -8.885      0.000      0.000
 INTER + INTRA:         -10.629
 INTER:                 -10.193
 INTRA:                  -0.437
 UNBOUND:                -0.446
  Name = 5c
  5 active torsions:
  status: ('A' for Active; 'I' for Inactive)
    1  A    between atoms: C_11  and  C_12
    2  A    between atoms: C_15  and  C_18
    3  A    between atoms: C_18  and  O_19
    4  A    between atoms: C_18  and  C_20
    5  A    between atoms: C_18  and  C_21
                            x       y       z     vdW  Elec       q    Type
                         _______ _______ _______ _____ _____    ______ ____

>  <TORSDO>  (8) 
F 3

>  <s_m_Source_Path>  (8) 
/projects/mai/users/kmzp800_harry/pmx_colab/docking_jobs/tnks2/vina_prep/output_mcs

>  <s_m_Source_File>  (8) 
tnks_mcs_vina__all_poses.sdf

>  <i_m_Source_File_Index>  (8) 
35

$$$$
8a
     RDKit          3D

 44 47  0  0  1  0  0  0  0  0999 V2000
  -15.0050  -19.3190  -25.7610 C   0  0  0  0  0  0  0  0  0  0  0  0
  -14.9540  -19.9170  -27.0290 C   0  0  0  0  0  0  0  0  0  0  0  0
  -14.8070  -21.2930  -27.1670 C   0  0  0  0  0  0  0  0  0  0  0  0
  -14.6970  -22.1120  -26.0400 C   0  0  0  0  0  0  0  0  0  0  0  0
  -14.7300  -21.5210  -24.7730 C   0  0  0  0  0  0  0  0  0  0  0  0
  -14.8880  -20.1430  -24.6320 C   0  0  0  0  0  0  0  0  0  0  0  0
  -14.5000  -14.8020  -27.5260 C   0  0  0  0  0  0  0  0  0  0  0  0
  -14.9720  -15.6340  -26.4930 C   0  0  0  0  0  0  0  0  0  0  0  0
  -14.6000  -13.4170  -27.3870 C   0  0  0  0  0  0  0  0  0  0  0  0
  -15.5930  -15.0650  -25.3720 C   0  0  0  0  0  0  0  0  0  0  0  0
  -14.8120  -17.0310  -26.5810 N   0  0  0  0  0  0  0  0  0  0  0  0
  -15.1900  -12.8560  -26.2580 C   0  0  0  0  0  0  0  0  0  0  0  0
  -15.7040  -13.6750  -25.2480 C   0  0  0  0  0  0  0  0  0  0  0  0
  -16.1470  -15.9950  -24.3110 C   0  0  0  0  0  0  0  0  0  0  0  0
  -15.8190  -17.2970  -24.5500 N   0  0  0  0  0  0  0  0  0  0  0  0
  -16.8410  -15.6630  -23.3510 O   0  0  0  0  0  0  0  0  0  0  0  0
  -15.1880  -17.8470  -25.6520 C   0  0  0  0  0  0  0  0  0  0  0  0
  -15.2630  -11.5100  -26.1590 F   0  0  0  0  0  0  0  0  0  0  0  0
  -14.6490  -23.4860  -26.1610 N   0  0  0  0  0  0  0  0  0  0  0  0
  -15.7320  -23.9700  -27.1310 C   0  0  0  0  0  0  0  0  0  0  0  0
  -15.7260  -25.4960  -27.2630 C   0  0  0  0  0  0  0  0  0  0  0  0
  -14.4100  -25.8870  -27.9390 N   0  0  0  0  0  0  0  0  0  0  0  0
  -13.2470  -25.5600  -27.0000 C   0  0  0  0  0  0  0  0  0  0  0  0
  -13.2700  -24.0590  -26.5630 C   0  0  0  0  0  0  0  0  0  0  0  0
  -14.4130  -27.3910  -28.3140 C   0  0  0  0  0  0  0  0  0  0  0  0
  -15.0315  -19.2878  -27.9280 H   0  0  0  0  0  0  0  0  0  0  0  0
  -14.7771  -21.7404  -28.1715 H   0  0  0  0  0  0  0  0  0  0  0  0
  -14.6301  -22.1510  -23.8768 H   0  0  0  0  0  0  0  0  0  0  0  0
  -14.9212  -19.6981  -23.6265 H   0  0  0  0  0  0  0  0  0  0  0  0
  -14.0571  -15.2390  -28.4331 H   0  0  0  0  0  0  0  0  0  0  0  0
  -14.2082  -12.7613  -28.1785 H   0  0  0  0  0  0  0  0  0  0  0  0
  -16.1900  -13.2322  -24.3661 H   0  0  0  0  0  0  0  0  0  0  0  0
  -16.0765  -17.9630  -23.8077 H   0  0  0  0  0  0  0  0  0  0  0  0
  -16.7155  -23.6473  -26.7586 H   0  0  0  0  0  0  0  0  0  0  0  0
  -15.5269  -23.5371  -28.1212 H   0  0  0  0  0  0  0  0  0  0  0  0
  -15.7911  -25.9605  -26.2680 H   0  0  0  0  0  0  0  0  0  0  0  0
  -16.5865  -25.8399  -27.8557 H   0  0  0  0  0  0  0  0  0  0  0  0
  -13.3210  -26.1945  -26.1045 H   0  0  0  0  0  0  0  0  0  0  0  0
  -12.3056  -25.7495  -27.5365 H   0  0  0  0  0  0  0  0  0  0  0  0
  -12.8892  -23.4591  -27.4027 H   0  0  0  0  0  0  0  0  0  0  0  0
  -12.6534  -24.0077  -25.6535 H   0  0  0  0  0  0  0  0  0  0  0  0
  -14.4142  -27.9977  -27.3964 H   0  0  0  0  0  0  0  0  0  0  0  0
  -15.3116  -27.6195  -28.9058 H   0  0  0  0  0  0  0  0  0  0  0  0
  -13.5153  -27.6231  -28.9058 H   0  0  0  0  0  0  0  0  0  0  0  0
  1 17  1  0
  1  6  1  0
  1  2  2  0
  2  3  1  0
  3  4  2  0
  4  5  1  0
  4 19  1  0
  5  6  2  0
  7  9  2  0
  7  8  1  0
  8 10  2  0
  8 11  1  0
  9 12  1  0
 10 13  1  0
 10 14  1  0
 11 17  2  0
 12 18  1  0
 12 13  2  0
 14 16  2  0
 14 15  1  0
 15 17  1  0
 19 20  1  0
 19 24  1  0
 20 21  1  0
 21 22  1  0
 22 23  1  0
 22 25  1  0
 23 24  1  0
  2 26  1  0
  3 27  1  0
  5 28  1  0
  6 29  1  0
  7 30  1  0
  9 31  1  0
 13 32  1  0
 15 33  1  0
 20 34  1  0
 20 35  1  0
 21 36  1  0
 21 37  1  0
 23 38  1  0
 23 39  1  0
 24 40  1  0
 24 41  1  0
 25 42  1  0
 25 43  1  0
 25 44  1  0
M  END
>  <s_m_entry_id>  (9) 
2433

>  <MODEL>  (9) 
1

>  <REMARK>  (9) 
 VINA RESULT:   -11.631      0.000      0.000
 INTER + INTRA:         -13.375
 INTER:                 -12.992
 INTRA:                  -0.383
 UNBOUND:                -0.385
  Name = 8a
  3 active torsions:
  status: ('A' for Active; 'I' for Inactive)
    1  A    between atoms: C_11  and  C_12
    2  A    between atoms: C_15  and  N_19
    3  A    between atoms: N_22  and  C_25
                            x       y       z     vdW  Elec       q    Type
                         _______ _______ _______ _____ _____    ______ ____

>  <TORSDO>  (9) 
F 2

>  <s_m_Source_Path>  (9) 
/projects/mai/users/kmzp800_harry/pmx_colab/docking_jobs/tnks2/vina_prep/output_mcs

>  <s_m_Source_File>  (9) 
tnks_mcs_vina__all_poses.sdf

>  <i_m_Source_File_Index>  (9) 
51

$$$$
5m
     RDKit          3D

 40 42  0  0  1  0  0  0  0  0999 V2000
  -14.6720  -16.7660  -26.5730 N   0  0  0  0  0  0  0  0  0  0  0  0
  -14.9650  -15.4020  -26.4920 C   0  0  0  0  0  0  0  0  0  0  0  0
  -15.7270  -14.9090  -25.4230 C   0  0  0  0  0  0  0  0  0  0  0  0
  -15.4540  -12.6930  -26.2830 C   0  0  0  0  0  0  0  0  0  0  0  0
  -14.7120  -13.1690  -27.3570 C   0  0  0  0  0  0  0  0  0  0  0  0
  -15.9740  -13.5420  -25.3130 C   0  0  0  0  0  0  0  0  0  0  0  0
  -14.4810  -14.5350  -27.4850 C   0  0  0  0  0  0  0  0  0  0  0  0
  -16.2890  -15.8910  -24.4170 C   0  0  0  0  0  0  0  0  0  0  0  0
  -15.8900  -17.1670  -24.6800 N   0  0  0  0  0  0  0  0  0  0  0  0
  -15.0940  -17.6250  -25.7120 C   0  0  0  0  0  0  0  0  0  0  0  0
  -17.0490  -15.6250  -23.4840 O   0  0  0  0  0  0  0  0  0  0  0  0
  -13.7070  -15.0200  -28.7000 C   0  0  0  0  0  0  0  0  0  0  0  0
  -15.6930  -11.3860  -26.2150 F   0  0  0  0  0  0  0  0  0  0  0  0
  -14.7760  -19.0560  -25.8460 C   0  0  0  0  0  0  0  0  0  0  0  0
  -14.2010  -19.7280  -24.7580 C   0  0  0  0  0  0  0  0  0  0  0  0
  -15.0390  -19.7590  -27.0270 C   0  0  0  0  0  0  0  0  0  0  0  0
  -13.9010  -21.0730  -24.8420 C   0  0  0  0  0  0  0  0  0  0  0  0
  -14.7540  -21.1160  -27.1010 C   0  0  0  0  0  0  0  0  0  0  0  0
  -14.1810  -21.7810  -26.0090 C   0  0  0  0  0  0  0  0  0  0  0  0
  -13.9710  -23.2930  -26.0390 C   0  0  0  0  0  0  0  0  0  0  0  0
  -13.0550  -23.7420  -27.1760 C   0  0  0  0  0  0  0  0  0  0  0  0
  -15.3540  -23.9430  -26.0790 C   0  0  0  0  0  0  0  0  0  0  0  0
  -13.3030  -23.7950  -24.9010 O   0  0  0  0  0  0  0  0  0  0  0  0
  -14.3088  -12.4685  -28.1032 H   0  0  0  0  0  0  0  0  0  0  0  0
  -16.5674  -13.1435  -24.4769 H   0  0  0  0  0  0  0  0  0  0  0  0
  -16.2263  -17.8850  -24.0225 H   0  0  0  0  0  0  0  0  0  0  0  0
  -12.8178  -15.5772  -28.3699 H   0  0  0  0  0  0  0  0  0  0  0  0
  -14.3484  -15.6780  -29.3047 H   0  0  0  0  0  0  0  0  0  0  0  0
  -13.3946  -14.1558  -29.3047 H   0  0  0  0  0  0  0  0  0  0  0  0
  -13.9870  -19.1787  -23.8293 H   0  0  0  0  0  0  0  0  0  0  0  0
  -15.4704  -19.2380  -27.8945 H   0  0  0  0  0  0  0  0  0  0  0  0
  -13.4399  -21.5869  -23.9857 H   0  0  0  0  0  0  0  0  0  0  0  0
  -14.9795  -21.6724  -28.0227 H   0  0  0  0  0  0  0  0  0  0  0  0
  -12.1420  -24.1895  -26.7563 H   0  0  0  0  0  0  0  0  0  0  0  0
  -13.5770  -24.4864  -27.7952 H   0  0  0  0  0  0  0  0  0  0  0  0
  -12.7864  -22.8734  -27.7952 H   0  0  0  0  0  0  0  0  0  0  0  0
  -15.7103  -24.1105  -25.0519 H   0  0  0  0  0  0  0  0  0  0  0  0
  -16.0555  -23.2803  -26.6070 H   0  0  0  0  0  0  0  0  0  0  0  0
  -15.2914  -24.9060  -26.6070 H   0  0  0  0  0  0  0  0  0  0  0  0
  -13.7483  -23.4604  -24.0826 H   0  0  0  0  0  0  0  0  0  0  0  0
  1  2  1  0
  1 10  2  0
  2  3  2  0
  2  7  1  0
  3  6  1  0
  3  8  1  0
  4 13  1  0
  4  6  2  0
  4  5  1  0
  5  7  2  0
  7 12  1  0
  8 11  2  0
  8  9  1  0
  9 10  1  0
 10 14  1  0
 14 15  2  0
 14 16  1  0
 15 17  1  0
 16 18  2  0
 17 19  2  0
 18 19  1  0
 19 20  1  0
 20 23  1  0
 20 21  1  0
 20 22  1  0
  5 24  1  0
  6 25  1  0
  9 26  1  0
 12 27  1  0
 12 28  1  0
 12 29  1  0
 15 30  1  0
 16 31  1  0
 17 32  1  0
 18 33  1  0
 21 34  1  0
 21 35  1  0
 21 36  1  0
 22 37  1  0
 22 38  1  0
 22 39  1  0
 23 40  1  0
M  END
>  <s_m_entry_id>  (10) 
2434

>  <MODEL>  (10) 
1

>  <REMARK>  (10) 
 VINA RESULT:   -10.690      0.000      0.000
 INTER + INTRA:         -12.700
 INTER:                 -12.243
 INTRA:                  -0.458
 UNBOUND:                -0.448
  Name = 5m
  6 active torsions:
  status: ('A' for Active; 'I' for Inactive)
    1  A    between atoms: C_1  and  C_17
    2  A    between atoms: C_7  and  C_8
    3  A    between atoms: C_8  and  C_19
    4  A    between atoms: C_8  and  O_20
    5  A    between atoms: C_8  and  C_21
    6  A    between atoms: C_14  and  C_22
                            x       y       z     vdW  Elec       q    Type
                         _______ _______ _______ _____ _____    ______ ____

>  <TORSDO>  (10) 
F 3

>  <s_m_Source_Path>  (10) 
/projects/mai/users/kmzp800_harry/pmx_colab/docking_jobs/tnks2/vina_prep/output_mcs

>  <s_m_Source_File>  (10) 
tnks_mcs_vina__all_poses.sdf

>  <i_m_Source_File_Index>  (10) 
52

$$$$
5n
     RDKit          3D

 44 46  0  0  1  0  0  0  0  0999 V2000
  -14.7630  -19.3200  -25.8090 C   0  0  0  0  0  0  0  0  0  0  0  0
  -14.2540  -20.0250  -24.7120 C   0  0  0  0  0  0  0  0  0  0  0  0
  -14.9800  -20.0140  -27.0100 C   0  0  0  0  0  0  0  0  0  0  0  0
  -13.9430  -21.3770  -24.8270 C   0  0  0  0  0  0  0  0  0  0  0  0
  -14.6810  -21.3680  -27.1190 C   0  0  0  0  0  0  0  0  0  0  0  0
  -14.1550  -22.0690  -26.0310 C   0  0  0  0  0  0  0  0  0  0  0  0
  -15.0500  -17.8670  -25.7360 C   0  0  0  0  0  0  0  0  0  0  0  0
  -15.8010  -17.3610  -24.6850 N   0  0  0  0  0  0  0  0  0  0  0  0
  -16.1610  -16.0720  -24.4320 C   0  0  0  0  0  0  0  0  0  0  0  0
  -14.6410  -17.0330  -26.6350 N   0  0  0  0  0  0  0  0  0  0  0  0
  -14.9030  -15.6580  -26.5560 C   0  0  0  0  0  0  0  0  0  0  0  0
  -15.6310  -15.1200  -25.4860 C   0  0  0  0  0  0  0  0  0  0  0  0
  -15.8540  -13.7420  -25.4060 C   0  0  0  0  0  0  0  0  0  0  0  0
  -15.3450  -12.9100  -26.4080 C   0  0  0  0  0  0  0  0  0  0  0  0
  -14.6360  -13.4500  -27.4830 C   0  0  0  0  0  0  0  0  0  0  0  0
  -14.4170  -14.8260  -27.5640 C   0  0  0  0  0  0  0  0  0  0  0  0
  -16.8560  -15.7620  -23.4620 O   0  0  0  0  0  0  0  0  0  0  0  0
  -15.5410  -11.5740  -26.3480 F   0  0  0  0  0  0  0  0  0  0  0  0
  -13.7610  -23.5620  -26.1500 C   0  0  0  0  0  0  0  0  0  0  0  0
  -15.0290  -24.3800  -26.4660 C   0  0  0  0  0  0  0  0  0  0  0  0
  -13.1050  -23.9800  -24.8220 C   0  0  0  0  0  0  0  0  0  0  0  0
  -12.7510  -23.7160  -27.1700 O   0  0  0  0  0  0  0  0  0  0  0  0
  -12.5530  -24.9380  -27.9030 C   0  0  0  0  0  0  0  0  0  0  0  0
  -11.2290  -25.0850  -28.6950 C   0  0  0  0  0  0  0  0  0  0  0  0
  -10.8780  -23.9550  -29.4720 O   0  0  0  0  0  0  0  0  0  0  0  0
  -14.0989  -19.5077  -23.7537 H   0  0  0  0  0  0  0  0  0  0  0  0
  -15.3927  -19.4788  -27.8779 H   0  0  0  0  0  0  0  0  0  0  0  0
  -13.5247  -21.9118  -23.9616 H   0  0  0  0  0  0  0  0  0  0  0  0
  -14.8602  -21.8913  -28.0698 H   0  0  0  0  0  0  0  0  0  0  0  0
  -16.1322  -18.0565  -24.0013 H   0  0  0  0  0  0  0  0  0  0  0  0
  -16.4227  -13.3177  -24.5654 H   0  0  0  0  0  0  0  0  0  0  0  0
  -14.2479  -12.7872  -28.2704 H   0  0  0  0  0  0  0  0  0  0  0  0
  -13.8656  -15.2506  -28.4159 H   0  0  0  0  0  0  0  0  0  0  0  0
  -15.5092  -24.6898  -25.5261 H   0  0  0  0  0  0  0  0  0  0  0  0
  -15.7281  -23.7622  -27.0487 H   0  0  0  0  0  0  0  0  0  0  0  0
  -14.7544  -25.2717  -27.0487 H   0  0  0  0  0  0  0  0  0  0  0  0
  -13.7034  -23.5987  -23.9815 H   0  0  0  0  0  0  0  0  0  0  0  0
  -13.0540  -25.0775  -24.7677 H   0  0  0  0  0  0  0  0  0  0  0  0
  -12.0887  -23.5626  -24.7677 H   0  0  0  0  0  0  0  0  0  0  0  0
  -12.6005  -25.7673  -27.1819 H   0  0  0  0  0  0  0  0  0  0  0  0
  -13.3421  -24.9387  -28.6693 H   0  0  0  0  0  0  0  0  0  0  0  0
  -10.4180  -25.2720  -27.9757 H   0  0  0  0  0  0  0  0  0  0  0  0
  -11.3792  -25.9145  -29.4017 H   0  0  0  0  0  0  0  0  0  0  0  0
  -10.6442  -23.2023  -28.8729 H   0  0  0  0  0  0  0  0  0  0  0  0
  1  7  1  0
  1  2  2  0
  1  3  1  0
  2  4  1  0
  3  5  2  0
  4  6  2  0
  5  6  1  0
  6 19  1  0
  7  8  1  0
  7 10  2  0
  8  9  1  0
  9 17  2  0
  9 12  1  0
 10 11  1  0
 11 12  2  0
 11 16  1  0
 12 13  1  0
 13 14  2  0
 14 18  1  0
 14 15  1  0
 15 16  2  0
 19 21  1  0
 19 20  1  0
 19 22  1  0
 22 23  1  0
 23 24  1  0
 24 25  1  0
  2 26  1  0
  3 27  1  0
  4 28  1  0
  5 29  1  0
  8 30  1  0
 13 31  1  0
 15 32  1  0
 16 33  1  0
 20 34  1  0
 20 35  1  0
 20 36  1  0
 21 37  1  0
 21 38  1  0
 21 39  1  0
 23 40  1  0
 23 41  1  0
 24 42  1  0
 24 43  1  0
 25 44  1  0
M  END
>  <s_m_entry_id>  (11) 
2436

>  <MODEL>  (11) 
2

>  <REMARK>  (11) 
 VINA RESULT:   -10.457      1.341      1.967
 INTER + INTRA:         -14.175
 INTER:                 -13.641
 INTRA:                  -0.534
 UNBOUND:                -0.356
  Name = 5n
  8 active torsions:
  status: ('A' for Active; 'I' for Inactive)
    1  A    between atoms: C_1  and  C_4
    2  A    between atoms: C_7  and  C_18
    3  A    between atoms: C_18  and  C_19
    4  A    between atoms: C_18  and  C_20
    5  A    between atoms: C_18  and  O_21
    6  A    between atoms: O_21  and  C_23
    7  A    between atoms: C_23  and  C_24
    8  A    between atoms: C_24  and  O_25
                            x       y       z     vdW  Elec       q    Type
                         _______ _______ _______ _____ _____    ______ ____

>  <TORSDO>  (11) 
F 6

>  <s_m_Source_Path>  (11) 
/projects/mai/users/kmzp800_harry/pmx_colab/docking_jobs/tnks2/vina_prep/output_mcs

>  <s_m_Source_File>  (11) 
tnks_mcs_vina__all_poses.sdf

>  <i_m_Source_File_Index>  (11) 
54

$$$$
5p
     RDKit          3D

 47 49  0  0  1  0  0  0  0  0999 V2000
  -14.7910  -19.2190  -25.8560 C   0  0  0  0  0  0  0  0  0  0  0  0
  -14.9830  -19.9060  -27.0620 C   0  0  0  0  0  0  0  0  0  0  0  0
  -14.3130  -19.9310  -24.7450 C   0  0  0  0  0  0  0  0  0  0  0  0
  -14.7040  -21.2620  -27.1480 C   0  0  0  0  0  0  0  0  0  0  0  0
  -14.0040  -21.2840  -24.8430 C   0  0  0  0  0  0  0  0  0  0  0  0
  -14.1900  -21.9690  -26.0490 C   0  0  0  0  0  0  0  0  0  0  0  0
  -15.1030  -17.7760  -25.7480 C   0  0  0  0  0  0  0  0  0  0  0  0
  -15.8350  -17.3100  -24.6660 N   0  0  0  0  0  0  0  0  0  0  0  0
  -16.1910  -16.0340  -24.3560 C   0  0  0  0  0  0  0  0  0  0  0  0
  -14.7220  -16.9120  -26.6320 N   0  0  0  0  0  0  0  0  0  0  0  0
  -14.9810  -15.5420  -26.4900 C   0  0  0  0  0  0  0  0  0  0  0  0
  -15.6860  -15.0430  -25.3860 C   0  0  0  0  0  0  0  0  0  0  0  0
  -15.9010  -13.6670  -25.2500 C   0  0  0  0  0  0  0  0  0  0  0  0
  -15.4110  -12.8010  -26.2330 C   0  0  0  0  0  0  0  0  0  0  0  0
  -14.7220  -13.3020  -27.3390 C   0  0  0  0  0  0  0  0  0  0  0  0
  -14.5090  -14.6740  -27.4730 C   0  0  0  0  0  0  0  0  0  0  0  0
  -16.8620  -15.7740  -23.3560 O   0  0  0  0  0  0  0  0  0  0  0  0
  -15.6000  -11.4670  -26.1280 F   0  0  0  0  0  0  0  0  0  0  0  0
  -13.8940  -23.4840  -26.1590 C   0  0  0  0  0  0  0  0  0  0  0  0
  -15.2230  -24.2380  -26.3820 C   0  0  0  0  0  0  0  0  0  0  0  0
  -13.1870  -23.9030  -24.8660 C   0  0  0  0  0  0  0  0  0  0  0  0
  -12.9390  -23.7070  -27.2180 O   0  0  0  0  0  0  0  0  0  0  0  0
  -12.5190  -25.0200  -27.6280 C   0  0  0  0  0  0  0  0  0  0  0  0
  -11.2000  -25.1070  -28.4230 C   0  0  0  0  0  0  0  0  0  0  0  0
  -10.9400  -23.9920  -29.2650 O   0  0  0  0  0  0  0  0  0  0  0  0
  -10.8300  -24.3120  -30.6470 C   0  0  0  0  0  0  0  0  0  0  0  0
  -15.3569  -19.3672  -27.9451 H   0  0  0  0  0  0  0  0  0  0  0  0
  -14.1809  -19.4124  -23.7840 H   0  0  0  0  0  0  0  0  0  0  0  0
  -14.8886  -21.7928  -28.0936 H   0  0  0  0  0  0  0  0  0  0  0  0
  -13.6106  -21.8191  -23.9661 H   0  0  0  0  0  0  0  0  0  0  0  0
  -16.1540  -18.0316  -24.0039 H   0  0  0  0  0  0  0  0  0  0  0  0
  -16.4481  -13.2716  -24.3815 H   0  0  0  0  0  0  0  0  0  0  0  0
  -14.3454  -12.6117  -28.1082 H   0  0  0  0  0  0  0  0  0  0  0  0
  -13.9722  -15.0682  -28.3485 H   0  0  0  0  0  0  0  0  0  0  0  0
  -15.6688  -24.4909  -25.4087 H   0  0  0  0  0  0  0  0  0  0  0  0
  -15.9166  -23.5989  -26.9481 H   0  0  0  0  0  0  0  0  0  0  0  0
  -15.0302  -25.1613  -26.9481 H   0  0  0  0  0  0  0  0  0  0  0  0
  -13.7708  -23.5570  -24.0002 H   0  0  0  0  0  0  0  0  0  0  0  0
  -13.0992  -24.9990  -24.8347 H   0  0  0  0  0  0  0  0  0  0  0  0
  -12.1834  -23.4537  -24.8347 H   0  0  0  0  0  0  0  0  0  0  0  0
  -12.4028  -25.6315  -26.7210 H   0  0  0  0  0  0  0  0  0  0  0  0
  -13.2984  -25.3704  -28.3206 H   0  0  0  0  0  0  0  0  0  0  0  0
  -10.3718  -25.1943  -27.7043 H   0  0  0  0  0  0  0  0  0  0  0  0
  -11.2927  -25.9811  -29.0844 H   0  0  0  0  0  0  0  0  0  0  0  0
  -10.4742  -25.3471  -30.7565 H   0  0  0  0  0  0  0  0  0  0  0  0
  -11.8147  -24.2101  -31.1265 H   0  0  0  0  0  0  0  0  0  0  0  0
  -10.1160  -23.6262  -31.1265 H   0  0  0  0  0  0  0  0  0  0  0  0
  1  7  1  0
  1  3  1  0
  1  2  2  0
  2  4  1  0
  3  5  2  0
  4  6  2  0
  5  6  1  0
  6 19  1  0
  7  8  1  0
  7 10  2  0
  8  9  1  0
  9 17  2  0
  9 12  1  0
 10 11  1  0
 11 12  2  0
 11 16  1  0
 12 13  1  0
 13 14  2  0
 14 18  1  0
 14 15  1  0
 15 16  2  0
 19 21  1  0
 19 20  1  0
 19 22  1  0
 22 23  1  0
 23 24  1  0
 24 25  1  0
 25 26  1  0
  2 27  1  0
  3 28  1  0
  4 29  1  0
  5 30  1  0
  8 31  1  0
 13 32  1  0
 15 33  1  0
 16 34  1  0
 20 35  1  0
 20 36  1  0
 20 37  1  0
 21 38  1  0
 21 39  1  0
 21 40  1  0
 23 41  1  0
 23 42  1  0
 24 43  1  0
 24 44  1  0
 26 45  1  0
 26 46  1  0
 26 47  1  0
M  END
>  <s_m_entry_id>  (12) 
2440

>  <MODEL>  (12) 
2

>  <REMARK>  (12) 
 VINA RESULT:   -10.186      1.523      2.559
 INTER + INTRA:         -14.449
 INTER:                 -13.866
 INTRA:                  -0.583
 UNBOUND:                -0.690
  Name = 5p
  9 active torsions:
  status: ('A' for Active; 'I' for Inactive)
    1  A    between atoms: C_1  and  C_4
    2  A    between atoms: C_7  and  C_18
    3  A    between atoms: C_18  and  O_19
    4  A    between atoms: C_18  and  C_25
    5  A    between atoms: C_18  and  C_26
    6  A    between atoms: O_19  and  C_21
    7  A    between atoms: C_21  and  C_22
    8  A    between atoms: C_22  and  O_23
    9  A    between atoms: O_23  and  C_24
                            x       y       z     vdW  Elec       q    Type
                         _______ _______ _______ _____ _____    ______ ____

>  <TORSDO>  (12) 
F 6

>  <s_m_Source_Path>  (12) 
/projects/mai/users/kmzp800_harry/pmx_colab/docking_jobs/tnks2/vina_prep/output_mcs

>  <s_m_Source_File>  (12) 
tnks_mcs_vina__all_poses.sdf

>  <i_m_Source_File_Index>  (12) 
58

$$$$
5i
     RDKit          3D

 40 42  0  0  1  0  0  0  0  0999 V2000
  -14.5980  -14.3000  -27.4850 C   0  0  0  0  0  0  0  0  0  0  0  0
  -15.1290  -15.2030  -26.5470 C   0  0  0  0  0  0  0  0  0  0  0  0
  -14.8690  -12.9340  -27.3450 C   0  0  0  0  0  0  0  0  0  0  0  0
  -15.9850  -14.7350  -25.5400 C   0  0  0  0  0  0  0  0  0  0  0  0
  -14.7840  -16.5690  -26.6010 N   0  0  0  0  0  0  0  0  0  0  0  0
  -15.6850  -12.4770  -26.3120 C   0  0  0  0  0  0  0  0  0  0  0  0
  -16.2650  -13.3760  -25.4160 C   0  0  0  0  0  0  0  0  0  0  0  0
  -16.5870  -15.7370  -24.5840 C   0  0  0  0  0  0  0  0  0  0  0  0
  -16.0510  -16.9740  -24.7420 N   0  0  0  0  0  0  0  0  0  0  0  0
  -17.4860  -15.5080  -23.7750 O   0  0  0  0  0  0  0  0  0  0  0  0
  -15.2030  -17.4300  -25.7310 C   0  0  0  0  0  0  0  0  0  0  0  0
  -13.6950  -14.7590  -28.6260 C   0  0  0  0  0  0  0  0  0  0  0  0
  -14.8500  -18.8670  -25.7810 C   0  0  0  0  0  0  0  0  0  0  0  0
  -15.5440  -19.7140  -26.6560 C   0  0  0  0  0  0  0  0  0  0  0  0
  -15.2270  -21.0620  -26.7430 C   0  0  0  0  0  0  0  0  0  0  0  0
  -14.2060  -21.6040  -25.9610 C   0  0  0  0  0  0  0  0  0  0  0  0
  -13.5210  -20.7690  -25.0690 C   0  0  0  0  0  0  0  0  0  0  0  0
  -13.8410  -19.4160  -24.9760 C   0  0  0  0  0  0  0  0  0  0  0  0
  -13.7850  -23.0730  -26.1400 C   0  0  0  0  0  0  0  0  0  0  0  0
  -12.9510  -23.5970  -24.9690 C   0  0  0  0  0  0  0  0  0  0  0  0
  -13.0580  -23.2150  -27.4790 C   0  0  0  0  0  0  0  0  0  0  0  0
  -14.8640  -23.9860  -26.1620 O   0  0  0  0  0  0  0  0  0  0  0  0
  -14.4345  -12.2157  -28.0558 H   0  0  0  0  0  0  0  0  0  0  0  0
  -15.8735  -11.3989  -26.2019 H   0  0  0  0  0  0  0  0  0  0  0  0
  -16.9351  -13.0159  -24.6215 H   0  0  0  0  0  0  0  0  0  0  0  0
  -16.3128  -17.6669  -24.0263 H   0  0  0  0  0  0  0  0  0  0  0  0
  -12.7866  -15.2207  -28.2117 H   0  0  0  0  0  0  0  0  0  0  0  0
  -14.2307  -15.4942  -29.2445 H   0  0  0  0  0  0  0  0  0  0  0  0
  -13.4167  -13.8929  -29.2445 H   0  0  0  0  0  0  0  0  0  0  0  0
  -16.3506  -19.3046  -27.2820 H   0  0  0  0  0  0  0  0  0  0  0  0
  -15.7856  -21.7095  -27.4348 H   0  0  0  0  0  0  0  0  0  0  0  0
  -12.7232  -21.1851  -24.4362 H   0  0  0  0  0  0  0  0  0  0  0  0
  -13.2986  -18.7740  -24.2664 H   0  0  0  0  0  0  0  0  0  0  0  0
  -13.4232  -23.3003  -24.0208 H   0  0  0  0  0  0  0  0  0  0  0  0
  -12.8930  -24.6942  -25.0222 H   0  0  0  0  0  0  0  0  0  0  0  0
  -11.9373  -23.1732  -25.0222 H   0  0  0  0  0  0  0  0  0  0  0  0
  -11.9931  -23.4230  -27.2978 H   0  0  0  0  0  0  0  0  0  0  0  0
  -13.5013  -24.0435  -28.0509 H   0  0  0  0  0  0  0  0  0  0  0  0
  -13.1570  -22.2806  -28.0509 H   0  0  0  0  0  0  0  0  0  0  0  0
  -15.1270  -24.2085  -25.2339 H   0  0  0  0  0  0  0  0  0  0  0  0
  1  3  2  0
  1  2  1  0
  1 12  1  0
  2  4  2  0
  2  5  1  0
  3  6  1  0
  4  7  1  0
  4  8  1  0
  5 11  2  0
  6  7  2  0
  8 10  2  0
  8  9  1  0
  9 11  1  0
 11 13  1  0
 13 18  1  0
 13 14  2  0
 14 15  1  0
 15 16  2  0
 16 17  1  0
 16 19  1  0
 17 18  2  0
 19 20  1  0
 19 21  1  0
 19 22  1  0
  3 23  1  0
  6 24  1  0
  7 25  1  0
  9 26  1  0
 12 27  1  0
 12 28  1  0
 12 29  1  0
 14 30  1  0
 15 31  1  0
 17 32  1  0
 18 33  1  0
 20 34  1  0
 20 35  1  0
 20 36  1  0
 21 37  1  0
 21 38  1  0
 21 39  1  0
 22 40  1  0
M  END
>  <s_m_entry_id>  (13) 
2444

>  <MODEL>  (13) 
2

>  <REMARK>  (13) 
 VINA RESULT:    -9.387      0.714      0.962
 INTER + INTRA:         -11.201
 INTER:                 -10.778
 INTRA:                  -0.423
 UNBOUND:                -0.442
  Name = 5i
  6 active torsions:
  status: ('A' for Active; 'I' for Inactive)
    1  A    between atoms: C_1  and  C_22
    2  A    between atoms: C_11  and  C_12
    3  A    between atoms: C_15  and  C_18
    4  A    between atoms: C_18  and  O_19
    5  A    between atoms: C_18  and  C_20
    6  A    between atoms: C_18  and  C_21
                            x       y       z     vdW  Elec       q    Type
                         _______ _______ _______ _____ _____    ______ ____

>  <TORSDO>  (13) 
F 3

>  <s_m_Source_Path>  (13) 
/projects/mai/users/kmzp800_harry/pmx_colab/docking_jobs/tnks2/vina_prep/output_mcs

>  <s_m_Source_File>  (13) 
tnks_mcs_vina__all_poses.sdf

>  <i_m_Source_File_Index>  (13) 
62

$$$$
5l
     RDKit          3D

 37 39  0  0  1  0  0  0  0  0999 V2000
  -14.6650  -16.9320  -26.6450 N   0  0  0  0  0  0  0  0  0  0  0  0
  -16.2120  -16.0310  -24.4530 C   0  0  0  0  0  0  0  0  0  0  0  0
  -15.7430  -17.2840  -24.6600 N   0  0  0  0  0  0  0  0  0  0  0  0
  -15.0230  -17.7720  -25.7300 C   0  0  0  0  0  0  0  0  0  0  0  0
  -17.0260  -15.7910  -23.5640 O   0  0  0  0  0  0  0  0  0  0  0  0
  -14.9570  -15.5580  -26.5610 C   0  0  0  0  0  0  0  0  0  0  0  0
  -15.6740  -15.0520  -25.4700 C   0  0  0  0  0  0  0  0  0  0  0  0
  -15.8610  -13.6780  -25.3230 C   0  0  0  0  0  0  0  0  0  0  0  0
  -15.3690  -12.8130  -26.3000 C   0  0  0  0  0  0  0  0  0  0  0  0
  -14.7010  -13.3130  -27.4190 C   0  0  0  0  0  0  0  0  0  0  0  0
  -14.4960  -14.6870  -27.5570 C   0  0  0  0  0  0  0  0  0  0  0  0
  -13.8180  -15.1530  -28.6340 F   0  0  0  0  0  0  0  0  0  0  0  0
  -16.4840  -13.1860  -24.2310 F   0  0  0  0  0  0  0  0  0  0  0  0
  -14.7480  -19.2210  -25.7990 C   0  0  0  0  0  0  0  0  0  0  0  0
  -14.2260  -19.9270  -24.7050 C   0  0  0  0  0  0  0  0  0  0  0  0
  -15.0180  -19.9120  -26.9860 C   0  0  0  0  0  0  0  0  0  0  0  0
  -13.9450  -21.2830  -24.8160 C   0  0  0  0  0  0  0  0  0  0  0  0
  -14.7410  -21.2660  -27.0910 C   0  0  0  0  0  0  0  0  0  0  0  0
  -14.1900  -21.9600  -26.0150 C   0  0  0  0  0  0  0  0  0  0  0  0
  -13.7360  -23.4110  -26.1760 C   0  0  0  0  0  0  0  0  0  0  0  0
  -12.7890  -23.6140  -27.3590 C   0  0  0  0  0  0  0  0  0  0  0  0
  -14.9840  -24.2880  -26.2000 C   0  0  0  0  0  0  0  0  0  0  0  0
  -12.9630  -23.9050  -25.1160 O   0  0  0  0  0  0  0  0  0  0  0  0
  -15.9526  -17.9658  -23.9169 H   0  0  0  0  0  0  0  0  0  0  0  0
  -15.5085  -11.7277  -26.1879 H   0  0  0  0  0  0  0  0  0  0  0  0
  -14.3354  -12.6230  -28.1937 H   0  0  0  0  0  0  0  0  0  0  0  0
  -14.0384  -19.4047  -23.7552 H   0  0  0  0  0  0  0  0  0  0  0  0
  -15.4535  -19.3762  -27.8423 H   0  0  0  0  0  0  0  0  0  0  0  0
  -13.5275  -21.8272  -23.9561 H   0  0  0  0  0  0  0  0  0  0  0  0
  -14.9575  -21.7966  -28.0299 H   0  0  0  0  0  0  0  0  0  0  0  0
  -11.7772  -23.8309  -26.9857 H   0  0  0  0  0  0  0  0  0  0  0  0
  -13.1425  -24.4568  -27.9712 H   0  0  0  0  0  0  0  0  0  0  0  0
  -12.7660  -22.7004  -27.9712 H   0  0  0  0  0  0  0  0  0  0  0  0
  -15.2973  -24.5082  -25.1688 H   0  0  0  0  0  0  0  0  0  0  0  0
  -15.7937  -23.7593  -26.7243 H   0  0  0  0  0  0  0  0  0  0  0  0
  -14.7609  -25.2289  -26.7243 H   0  0  0  0  0  0  0  0  0  0  0  0
  -13.3757  -23.6412  -24.2557 H   0  0  0  0  0  0  0  0  0  0  0  0
  1  6  1  0
  1  4  2  0
  2  5  2  0
  2  3  1  0
  2  7  1  0
  3  4  1  0
  4 14  1  0
  6  7  2  0
  6 11  1  0
  7  8  1  0
  8 13  1  0
  8  9  2  0
  9 10  1  0
 10 11  2  0
 11 12  1  0
 14 15  2  0
 14 16  1  0
 15 17  1  0
 16 18  2  0
 17 19  2  0
 18 19  1  0
 19 20  1  0
 20 23  1  0
 20 21  1  0
 20 22  1  0
  3 24  1  0
  9 25  1  0
 10 26  1  0
 15 27  1  0
 16 28  1  0
 17 29  1  0
 18 30  1  0
 21 31  1  0
 21 32  1  0
 21 33  1  0
 22 34  1  0
 22 35  1  0
 22 36  1  0
 23 37  1  0
M  END
>  <s_m_entry_id>  (14) 
2446

>  <MODEL>  (14) 
1

>  <REMARK>  (14) 
 VINA RESULT:   -11.480      0.000      0.000
 INTER + INTRA:         -13.606
 INTER:                 -13.153
 INTRA:                  -0.453
 UNBOUND:                -0.448
  Name = 5l
  5 active torsions:
  status: ('A' for Active; 'I' for Inactive)
    1  A    between atoms: C_1  and  C_11
    2  A    between atoms: C_7  and  C_8
    3  A    between atoms: C_8  and  C_13
    4  A    between atoms: C_8  and  O_14
    5  A    between atoms: C_8  and  C_15
                            x       y       z     vdW  Elec       q    Type
                         _______ _______ _______ _____ _____    ______ ____

>  <TORSDO>  (14) 
F 3

>  <s_m_Source_Path>  (14) 
/projects/mai/users/kmzp800_harry/pmx_colab/docking_jobs/tnks2/vina_prep/output_mcs

>  <s_m_Source_File>  (14) 
tnks_mcs_vina__all_poses.sdf

>  <i_m_Source_File_Index>  (14) 
64

$$$$
5e
     RDKit          3D

 37 39  0  0  1  0  0  0  0  0999 V2000
  -14.3400  -15.1970  -27.6620 C   0  0  0  0  0  0  0  0  0  0  0  0
  -14.8040  -15.9780  -26.6080 C   0  0  0  0  0  0  0  0  0  0  0  0
  -14.6160  -13.8370  -27.6560 C   0  0  0  0  0  0  0  0  0  0  0  0
  -15.5640  -15.4270  -25.5660 C   0  0  0  0  0  0  0  0  0  0  0  0
  -14.4790  -17.3230  -26.6140 N   0  0  0  0  0  0  0  0  0  0  0  0
  -15.3400  -13.2950  -26.5980 C   0  0  0  0  0  0  0  0  0  0  0  0
  -15.8350  -14.0680  -25.5540 C   0  0  0  0  0  0  0  0  0  0  0  0
  -16.0770  -16.3440  -24.4790 C   0  0  0  0  0  0  0  0  0  0  0  0
  -15.6920  -17.6300  -24.6930 N   0  0  0  0  0  0  0  0  0  0  0  0
  -16.7830  -16.0170  -23.5230 O   0  0  0  0  0  0  0  0  0  0  0  0
  -14.9210  -18.1370  -25.7230 C   0  0  0  0  0  0  0  0  0  0  0  0
  -15.6100  -11.6360  -26.5720 Cl  0  0  0  0  0  0  0  0  0  0  0  0
  -14.6570  -19.5700  -25.8220 C   0  0  0  0  0  0  0  0  0  0  0  0
  -14.1050  -20.2920  -24.7610 C   0  0  0  0  0  0  0  0  0  0  0  0
  -13.8360  -21.6410  -24.9250 C   0  0  0  0  0  0  0  0  0  0  0  0
  -14.1370  -22.2800  -26.1340 C   0  0  0  0  0  0  0  0  0  0  0  0
  -14.6960  -21.5590  -27.1800 C   0  0  0  0  0  0  0  0  0  0  0  0
  -14.9660  -20.2180  -27.0250 C   0  0  0  0  0  0  0  0  0  0  0  0
  -13.7180  -23.7170  -26.3750 C   0  0  0  0  0  0  0  0  0  0  0  0
  -12.7200  -23.8620  -27.4980 C   0  0  0  0  0  0  0  0  0  0  0  0
  -14.9980  -24.5200  -26.5480 C   0  0  0  0  0  0  0  0  0  0  0  0
  -12.9680  -24.3040  -25.3420 O   0  0  0  0  0  0  0  0  0  0  0  0
  -13.7655  -15.6489  -28.4841 H   0  0  0  0  0  0  0  0  0  0  0  0
  -14.2666  -13.1948  -28.4779 H   0  0  0  0  0  0  0  0  0  0  0  0
  -16.4239  -13.6147  -24.7430 H   0  0  0  0  0  0  0  0  0  0  0  0
  -16.0169  -18.3164  -23.9972 H   0  0  0  0  0  0  0  0  0  0  0  0
  -13.8861  -19.7942  -23.8048 H   0  0  0  0  0  0  0  0  0  0  0  0
  -13.3837  -22.2130  -24.1014 H   0  0  0  0  0  0  0  0  0  0  0  0
  -14.9233  -22.0592  -28.1330 H   0  0  0  0  0  0  0  0  0  0  0  0
  -15.4262  -19.6530  -27.8490 H   0  0  0  0  0  0  0  0  0  0  0  0
  -11.7140  -24.0082  -27.0779 H   0  0  0  0  0  0  0  0  0  0  0  0
  -12.9885  -24.7306  -28.1173 H   0  0  0  0  0  0  0  0  0  0  0  0
  -12.7302  -22.9529  -28.1173 H   0  0  0  0  0  0  0  0  0  0  0  0
  -15.4065  -24.7763  -25.5593 H   0  0  0  0  0  0  0  0  0  0  0  0
  -15.7339  -23.9214  -27.1049 H   0  0  0  0  0  0  0  0  0  0  0  0
  -14.7793  -25.4431  -27.1049 H   0  0  0  0  0  0  0  0  0  0  0  0
  -13.3322  -24.0189  -24.4667 H   0  0  0  0  0  0  0  0  0  0  0  0
  1  3  2  0
  1  2  1  0
  2  4  2  0
  2  5  1  0
  3  6  1  0
  4  7  1  0
  4  8  1  0
  5 11  2  0
  6 12  1  0
  6  7  2  0
  8 10  2  0
  8  9  1  0
  9 11  1  0
 11 13  1  0
 13 14  2  0
 13 18  1  0
 14 15  1  0
 15 16  2  0
 16 17  1  0
 16 19  1  0
 17 18  2  0
 19 22  1  0
 19 20  1  0
 19 21  1  0
  1 23  1  0
  3 24  1  0
  7 25  1  0
  9 26  1  0
 14 27  1  0
 15 28  1  0
 17 29  1  0
 18 30  1  0
 20 31  1  0
 20 32  1  0
 20 33  1  0
 21 34  1  0
 21 35  1  0
 21 36  1  0
 22 37  1  0
M  END
>  <s_m_entry_id>  (15) 
2447

>  <MODEL>  (15) 
1

>  <REMARK>  (15) 
 VINA RESULT:   -10.384      0.000      0.000
 INTER + INTRA:         -12.380
 INTER:                 -11.924
 INTRA:                  -0.457
 UNBOUND:                -0.478
  Name = 5e
  5 active torsions:
  status: ('A' for Active; 'I' for Inactive)
    1  A    between atoms: C_11  and  C_12
    2  A    between atoms: C_15  and  C_18
    3  A    between atoms: C_18  and  O_19
    4  A    between atoms: C_18  and  C_21
    5  A    between atoms: C_18  and  C_22
                            x       y       z     vdW  Elec       q    Type
                         _______ _______ _______ _____ _____    ______ ____

>  <TORSDO>  (15) 
F 3

>  <s_m_Source_Path>  (15) 
/projects/mai/users/kmzp800_harry/pmx_colab/docking_jobs/tnks2/vina_prep/output_mcs

>  <s_m_Source_File>  (15) 
tnks_mcs_vina__all_poses.sdf

>  <i_m_Source_File_Index>  (15) 
65

$$$$
5h
     RDKit          3D

 41 43  0  0  1  0  0  0  0  0999 V2000
  -14.1470  -20.8470  -25.1760 C   0  0  0  0  0  0  0  0  0  0  0  0
  -14.4300  -22.0340  -25.8800 C   0  0  0  0  0  0  0  0  0  0  0  0
  -15.2140  -19.9730  -24.8960 C   0  0  0  0  0  0  0  0  0  0  0  0
  -15.7290  -22.2890  -26.3420 C   0  0  0  0  0  0  0  0  0  0  0  0
  -13.4050  -22.9770  -26.1080 N   0  0  0  0  0  0  0  0  0  0  0  0
  -16.5100  -20.2600  -25.3250 C   0  0  0  0  0  0  0  0  0  0  0  0
  -16.7740  -21.4100  -26.0650 C   0  0  0  0  0  0  0  0  0  0  0  0
  -15.9760  -23.5460  -27.1440 C   0  0  0  0  0  0  0  0  0  0  0  0
  -14.8900  -24.3630  -27.1550 N   0  0  0  0  0  0  0  0  0  0  0  0
  -17.0060  -23.8150  -27.7600 O   0  0  0  0  0  0  0  0  0  0  0  0
  -13.6130  -24.1110  -26.6970 C   0  0  0  0  0  0  0  0  0  0  0  0
  -12.5400  -25.1090  -26.9270 C   0  0  0  0  0  0  0  0  0  0  0  0
  -12.0660  -25.3240  -28.2290 C   0  0  0  0  0  0  0  0  0  0  0  0
  -11.0470  -26.2330  -28.4730 C   0  0  0  0  0  0  0  0  0  0  0  0
  -10.4710  -26.9560  -27.4250 C   0  0  0  0  0  0  0  0  0  0  0  0
  -10.9550  -26.7630  -26.1250 C   0  0  0  0  0  0  0  0  0  0  0  0
  -11.9810  -25.8530  -25.8770 C   0  0  0  0  0  0  0  0  0  0  0  0
   -9.2650  -27.8760  -27.6890 C   0  0  0  0  0  0  0  0  0  0  0  0
   -8.1980  -27.7970  -26.5970 C   0  0  0  0  0  0  0  0  0  0  0  0
   -8.6980  -27.5530  -29.0730 C   0  0  0  0  0  0  0  0  0  0  0  0
   -9.5740  -29.2540  -27.6920 O   0  0  0  0  0  0  0  0  0  0  0  0
  -12.8490  -20.6150  -24.7480 O   0  0  0  0  0  0  0  0  0  0  0  0
  -12.5510  -19.4150  -24.0360 C   0  0  0  0  0  0  0  0  0  0  0  0
  -15.0231  -19.0493  -24.3301 H   0  0  0  0  0  0  0  0  0  0  0  0
  -17.3312  -19.5716  -25.0765 H   0  0  0  0  0  0  0  0  0  0  0  0
  -17.7917  -21.6210  -26.4252 H   0  0  0  0  0  0  0  0  0  0  0  0
  -15.0407  -25.2977  -27.5605 H   0  0  0  0  0  0  0  0  0  0  0  0
  -12.5076  -24.7650  -29.0672 H   0  0  0  0  0  0  0  0  0  0  0  0
  -10.6888  -26.3862  -29.5017 H   0  0  0  0  0  0  0  0  0  0  0  0
  -10.5212  -27.3352  -25.2917 H   0  0  0  0  0  0  0  0  0  0  0  0
  -12.3549  -25.7172  -24.8515 H   0  0  0  0  0  0  0  0  0  0  0  0
   -8.6809  -27.8328  -25.6093 H   0  0  0  0  0  0  0  0  0  0  0  0
   -7.5064  -28.6464  -26.6980 H   0  0  0  0  0  0  0  0  0  0  0  0
   -7.6390  -26.8550  -26.6980 H   0  0  0  0  0  0  0  0  0  0  0  0
   -7.7471  -27.0113  -28.9624 H   0  0  0  0  0  0  0  0  0  0  0  0
   -8.5251  -28.4882  -29.6258 H   0  0  0  0  0  0  0  0  0  0  0  0
   -9.4142  -26.9274  -29.6258 H   0  0  0  0  0  0  0  0  0  0  0  0
   -9.6466  -29.5779  -26.7593 H   0  0  0  0  0  0  0  0  0  0  0  0
  -12.5992  -19.6089  -22.9543 H   0  0  0  0  0  0  0  0  0  0  0  0
  -11.5404  -19.0719  -24.3024 H   0  0  0  0  0  0  0  0  0  0  0  0
  -13.2837  -18.6390  -24.3024 H   0  0  0  0  0  0  0  0  0  0  0  0
  1  3  2  0
  1 22  1  0
  1  2  1  0
  2  4  2  0
  2  5  1  0
  3  6  1  0
  4  7  1  0
  4  8  1  0
  5 11  2  0
  6  7  2  0
  8  9  1  0
  8 10  2  0
  9 11  1  0
 11 12  1  0
 12 17  1  0
 12 13  2  0
 13 14  1  0
 14 15  2  0
 15 16  1  0
 15 18  1  0
 16 17  2  0
 18 19  1  0
 18 20  1  0
 18 21  1  0
 22 23  1  0
  3 24  1  0
  6 25  1  0
  7 26  1  0
  9 27  1  0
 13 28  1  0
 14 29  1  0
 16 30  1  0
 17 31  1  0
 19 32  1  0
 19 33  1  0
 19 34  1  0
 20 35  1  0
 20 36  1  0
 20 37  1  0
 21 38  1  0
 23 39  1  0
 23 40  1  0
 23 41  1  0
M  END
>  <s_m_entry_id>  (16) 
2461

>  <MODEL>  (16) 
12

>  <REMARK>  (16) 
 VINA RESULT:    -7.206      2.451      7.378
 INTER + INTRA:          -7.831
 INTER:                  -7.333
 INTRA:                  -0.498
 UNBOUND:                 0.849
  Name = 5h
  7 active torsions:
  status: ('A' for Active; 'I' for Inactive)
    1  A    between atoms: C_1  and  O_22
    2  A    between atoms: C_11  and  C_12
    3  A    between atoms: C_15  and  C_18
    4  A    between atoms: C_18  and  O_19
    5  A    between atoms: C_18  and  C_20
    6  A    between atoms: C_18  and  C_21
    7  A    between atoms: O_22  and  C_23
                            x       y       z     vdW  Elec       q    Type
                         _______ _______ _______ _____ _____    ______ ____

>  <TORSDO>  (16) 
F 4

>  <s_m_Source_Path>  (16) 
/projects/mai/users/kmzp800_harry/pmx_colab/docking_jobs/tnks2/vina_prep/output_mcs

>  <s_m_Source_File>  (16) 
tnks_mcs_vina__all_poses.sdf

>  <i_m_Source_File_Index>  (16) 
79

$$$$
8c
     RDKit          3D

 42 45  0  0  1  0  0  0  0  0999 V2000
  -14.5020  -14.8680  -27.4280 C   0  0  0  0  0  0  0  0  0  0  0  0
  -14.9830  -15.7040  -26.4090 C   0  0  0  0  0  0  0  0  0  0  0  0
  -14.6670  -13.4880  -27.3160 C   0  0  0  0  0  0  0  0  0  0  0  0
  -15.6510  -15.1500  -25.3080 C   0  0  0  0  0  0  0  0  0  0  0  0
  -14.7860  -17.0940  -26.4970 N   0  0  0  0  0  0  0  0  0  0  0  0
  -15.3160  -12.9390  -26.2080 C   0  0  0  0  0  0  0  0  0  0  0  0
  -15.8170  -13.7660  -25.2000 C   0  0  0  0  0  0  0  0  0  0  0  0
  -16.1930  -16.0890  -24.2510 C   0  0  0  0  0  0  0  0  0  0  0  0
  -15.8730  -17.3880  -24.5070 N   0  0  0  0  0  0  0  0  0  0  0  0
  -16.8750  -15.7670  -23.2780 O   0  0  0  0  0  0  0  0  0  0  0  0
  -15.2060  -17.9200  -25.5960 C   0  0  0  0  0  0  0  0  0  0  0  0
  -13.8620  -15.3770  -28.5080 F   0  0  0  0  0  0  0  0  0  0  0  0
  -15.4660  -11.6000  -26.1150 F   0  0  0  0  0  0  0  0  0  0  0  0
  -15.0370  -19.3890  -25.7210 C   0  0  0  0  0  0  0  0  0  0  0  0
  -14.9650  -19.9620  -26.9980 C   0  0  0  0  0  0  0  0  0  0  0  0
  -14.8240  -21.3330  -27.1590 C   0  0  0  0  0  0  0  0  0  0  0  0
  -14.7360  -22.1740  -26.0460 C   0  0  0  0  0  0  0  0  0  0  0  0
  -14.8010  -21.6100  -24.7670 C   0  0  0  0  0  0  0  0  0  0  0  0
  -14.9640  -20.2350  -24.6040 C   0  0  0  0  0  0  0  0  0  0  0  0
  -14.6380  -23.6830  -26.2140 C   0  0  0  0  0  0  0  0  0  0  0  0
  -13.2560  -24.0770  -26.7500 C   0  0  0  0  0  0  0  0  0  0  0  0
  -13.1890  -25.5880  -27.0400 C   0  0  0  0  0  0  0  0  0  0  0  0
  -14.2290  -25.9590  -28.0000 N   0  0  0  0  0  0  0  0  0  0  0  0
  -15.5550  -25.6960  -27.4430 C   0  0  0  0  0  0  0  0  0  0  0  0
  -15.7240  -24.1900  -27.1710 C   0  0  0  0  0  0  0  0  0  0  0  0
  -14.2830  -12.8266  -28.1066 H   0  0  0  0  0  0  0  0  0  0  0  0
  -16.3359  -13.3336  -24.3318 H   0  0  0  0  0  0  0  0  0  0  0  0
  -16.1682  -18.0676  -23.7915 H   0  0  0  0  0  0  0  0  0  0  0  0
  -15.0211  -19.3152  -27.8860 H   0  0  0  0  0  0  0  0  0  0  0  0
  -14.7811  -21.7617  -28.1711 H   0  0  0  0  0  0  0  0  0  0  0  0
  -14.7227  -22.2579  -23.8815 H   0  0  0  0  0  0  0  0  0  0  0  0
  -15.0359  -19.8101  -23.5919 H   0  0  0  0  0  0  0  0  0  0  0  0
  -14.7850  -24.1455  -25.2268 H   0  0  0  0  0  0  0  0  0  0  0  0
  -13.0589  -23.5228  -27.6796 H   0  0  0  0  0  0  0  0  0  0  0  0
  -12.5009  -23.8316  -25.9887 H   0  0  0  0  0  0  0  0  0  0  0  0
  -12.2021  -25.8354  -27.4581 H   0  0  0  0  0  0  0  0  0  0  0  0
  -13.3468  -26.1431  -26.1036 H   0  0  0  0  0  0  0  0  0  0  0  0
  -14.1075  -25.4079  -28.8616 H   0  0  0  0  0  0  0  0  0  0  0  0
  -16.3225  -26.0250  -28.1591 H   0  0  0  0  0  0  0  0  0  0  0  0
  -15.6649  -26.2477  -26.4977 H   0  0  0  0  0  0  0  0  0  0  0  0
  -16.7120  -24.0137  -26.7208 H   0  0  0  0  0  0  0  0  0  0  0  0
  -15.6346  -23.6479  -28.1240 H   0  0  0  0  0  0  0  0  0  0  0  0
  1  3  2  0
  1  2  1  0
  1 12  1  0
  2  4  2  0
  2  5  1  0
  3  6  1  0
  4  7  1  0
  4  8  1  0
  5 11  2  0
  6 13  1  0
  6  7  2  0
  8 10  2  0
  8  9  1  0
  9 11  1  0
 11 14  1  0
 14 19  1  0
 14 15  2  0
 15 16  1  0
 16 17  2  0
 17 18  1  0
 17 20  1  0
 18 19  2  0
 20 21  1  0
 20 25  1  0
 21 22  1  0
 22 23  1  0
 23 24  1  0
 24 25  1  0
  3 26  1  0
  7 27  1  0
  9 28  1  0
 15 29  1  0
 16 30  1  0
 18 31  1  0
 19 32  1  0
 20 33  1  0
 21 34  1  0
 21 35  1  0
 22 36  1  0
 22 37  1  0
 23 38  1  0
 24 39  1  0
 24 40  1  0
 25 41  1  0
 25 42  1  0
M  END
>  <s_m_entry_id>  (17) 
2472

>  <MODEL>  (17) 
1

>  <REMARK>  (17) 
 VINA RESULT:   -12.458      0.000      0.000
 INTER + INTRA:         -14.414
 INTER:                 -13.926
 INTRA:                  -0.488
 UNBOUND:                -0.499
  Name = 8c
  2 active torsions:
  status: ('A' for Active; 'I' for Inactive)
    1  A    between atoms: C_11  and  C_12
    2  A    between atoms: C_15  and  C_20
                            x       y       z     vdW  Elec       q    Type
                         _______ _______ _______ _____ _____    ______ ____

>  <TORSDO>  (17) 
F 2

>  <s_m_Source_Path>  (17) 
/projects/mai/users/kmzp800_harry/pmx_colab/docking_jobs/tnks2/vina_prep/output_mcs

>  <s_m_Source_File>  (17) 
tnks_mcs_vina__all_poses.sdf

>  <i_m_Source_File_Index>  (17) 
90

$$$$
5a
     RDKit          3D

 37 39  0  0  1  0  0  0  0  0999 V2000
  -14.6000  -14.7240  -27.4650 C   0  0  0  0  0  0  0  0  0  0  0  0
  -15.0210  -15.5980  -26.4620 C   0  0  0  0  0  0  0  0  0  0  0  0
  -14.8200  -13.3520  -27.3220 C   0  0  0  0  0  0  0  0  0  0  0  0
  -15.7230  -15.1080  -25.3570 C   0  0  0  0  0  0  0  0  0  0  0  0
  -14.7030  -16.9590  -26.5680 N   0  0  0  0  0  0  0  0  0  0  0  0
  -15.4850  -12.8650  -26.1950 C   0  0  0  0  0  0  0  0  0  0  0  0
  -15.9540  -13.7420  -25.2130 C   0  0  0  0  0  0  0  0  0  0  0  0
  -16.2130  -16.0990  -24.3300 C   0  0  0  0  0  0  0  0  0  0  0  0
  -15.7560  -17.3530  -24.5720 N   0  0  0  0  0  0  0  0  0  0  0  0
  -16.9670  -15.8560  -23.3930 O   0  0  0  0  0  0  0  0  0  0  0  0
  -15.0400  -17.8150  -25.6570 C   0  0  0  0  0  0  0  0  0  0  0  0
  -14.7390  -19.2560  -25.7520 C   0  0  0  0  0  0  0  0  0  0  0  0
  -14.2110  -19.9770  -24.6720 C   0  0  0  0  0  0  0  0  0  0  0  0
  -13.9180  -21.3300  -24.8070 C   0  0  0  0  0  0  0  0  0  0  0  0
  -14.1420  -21.9810  -26.0230 C   0  0  0  0  0  0  0  0  0  0  0  0
  -14.6920  -21.2690  -27.0900 C   0  0  0  0  0  0  0  0  0  0  0  0
  -14.9890  -19.9240  -26.9550 C   0  0  0  0  0  0  0  0  0  0  0  0
  -13.6550  -23.4160  -26.2260 C   0  0  0  0  0  0  0  0  0  0  0  0
  -12.6660  -23.5790  -27.3910 C   0  0  0  0  0  0  0  0  0  0  0  0
  -14.8990  -24.3000  -26.3320 C   0  0  0  0  0  0  0  0  0  0  0  0
  -12.9090  -23.9220  -25.1490 O   0  0  0  0  0  0  0  0  0  0  0  0
  -14.0978  -15.1131  -28.3630 H   0  0  0  0  0  0  0  0  0  0  0  0
  -14.4693  -12.6551  -28.0974 H   0  0  0  0  0  0  0  0  0  0  0  0
  -15.6410  -11.7823  -26.0791 H   0  0  0  0  0  0  0  0  0  0  0  0
  -16.4986  -13.3584  -24.3376 H   0  0  0  0  0  0  0  0  0  0  0  0
  -15.9725  -18.0540  -23.8491 H   0  0  0  0  0  0  0  0  0  0  0  0
  -14.0275  -19.4703  -23.7131 H   0  0  0  0  0  0  0  0  0  0  0  0
  -13.5084  -21.8897  -23.9532 H   0  0  0  0  0  0  0  0  0  0  0  0
  -14.8906  -21.7798  -28.0438 H   0  0  0  0  0  0  0  0  0  0  0  0
  -15.4260  -19.3750  -27.8022 H   0  0  0  0  0  0  0  0  0  0  0  0
  -11.6543  -23.7457  -26.9926 H   0  0  0  0  0  0  0  0  0  0  0  0
  -12.9639  -24.4402  -28.0071 H   0  0  0  0  0  0  0  0  0  0  0  0
  -12.6718  -22.6678  -28.0071 H   0  0  0  0  0  0  0  0  0  0  0  0
  -15.2557  -24.5535  -25.3228 H   0  0  0  0  0  0  0  0  0  0  0  0
  -15.6881  -23.7589  -26.8747 H   0  0  0  0  0  0  0  0  0  0  0  0
  -14.6476  -25.2232  -26.8747 H   0  0  0  0  0  0  0  0  0  0  0  0
  -13.3261  -23.6391  -24.2969 H   0  0  0  0  0  0  0  0  0  0  0  0
  1  3  2  0
  1  2  1  0
  2  4  2  0
  2  5  1  0
  3  6  1  0
  4  7  1  0
  4  8  1  0
  5 11  2  0
  6  7  2  0
  8 10  2  0
  8  9  1  0
  9 11  1  0
 11 12  1  0
 12 13  2  0
 12 17  1  0
 13 14  1  0
 14 15  2  0
 15 16  1  0
 15 18  1  0
 16 17  2  0
 18 21  1  0
 18 19  1  0
 18 20  1  0
  1 22  1  0
  3 23  1  0
  6 24  1  0
  7 25  1  0
  9 26  1  0
 13 27  1  0
 14 28  1  0
 16 29  1  0
 17 30  1  0
 19 31  1  0
 19 32  1  0
 19 33  1  0
 20 34  1  0
 20 35  1  0
 20 36  1  0
 21 37  1  0
M  END
>  <s_m_entry_id>  (18) 
2473

>  <MODEL>  (18) 
1

>  <REMARK>  (18) 
 VINA RESULT:   -11.138      0.000      0.000
 INTER + INTRA:         -13.225
 INTER:                 -12.798
 INTRA:                  -0.427
 UNBOUND:                -0.458
  Name = 5a
  5 active torsions:
  status: ('A' for Active; 'I' for Inactive)
    1  A    between atoms: C_11  and  C_12
    2  A    between atoms: C_15  and  C_18
    3  A    between atoms: C_18  and  O_19
    4  A    between atoms: C_18  and  C_20
    5  A    between atoms: C_18  and  C_21
                            x       y       z     vdW  Elec       q    Type
                         _______ _______ _______ _____ _____    ______ ____

>  <TORSDO>  (18) 
F 3

>  <s_m_Source_Path>  (18) 
/projects/mai/users/kmzp800_harry/pmx_colab/docking_jobs/tnks2/vina_prep/output_mcs

>  <s_m_Source_File>  (18) 
tnks_mcs_vina__all_poses.sdf

>  <i_m_Source_File_Index>  (18) 
91

$$$$
5d
     RDKit          3D

 37 39  0  0  1  0  0  0  0  0999 V2000
  -14.3950  -14.9220  -27.6050 C   0  0  0  0  0  0  0  0  0  0  0  0
  -14.9070  -15.7190  -26.5820 C   0  0  0  0  0  0  0  0  0  0  0  0
  -14.6390  -13.5530  -27.5790 C   0  0  0  0  0  0  0  0  0  0  0  0
  -15.6870  -15.1660  -25.5580 C   0  0  0  0  0  0  0  0  0  0  0  0
  -14.6140  -17.0780  -26.6030 N   0  0  0  0  0  0  0  0  0  0  0  0
  -15.4010  -13.0080  -26.5480 C   0  0  0  0  0  0  0  0  0  0  0  0
  -15.9380  -13.7980  -25.5350 C   0  0  0  0  0  0  0  0  0  0  0  0
  -15.6330  -11.6960  -26.5410 F   0  0  0  0  0  0  0  0  0  0  0  0
  -16.2490  -16.0940  -24.5010 C   0  0  0  0  0  0  0  0  0  0  0  0
  -15.8470  -17.3770  -24.6950 N   0  0  0  0  0  0  0  0  0  0  0  0
  -17.0010  -15.7770  -23.5790 O   0  0  0  0  0  0  0  0  0  0  0  0
  -15.0550  -17.8910  -25.7060 C   0  0  0  0  0  0  0  0  0  0  0  0
  -14.7660  -19.3300  -25.7670 C   0  0  0  0  0  0  0  0  0  0  0  0
  -14.2180  -20.0210  -24.6800 C   0  0  0  0  0  0  0  0  0  0  0  0
  -13.9150  -21.3700  -24.8040 C   0  0  0  0  0  0  0  0  0  0  0  0
  -14.1710  -22.0420  -26.0050 C   0  0  0  0  0  0  0  0  0  0  0  0
  -14.7440  -21.3620  -27.0730 C   0  0  0  0  0  0  0  0  0  0  0  0
  -15.0410  -20.0200  -26.9540 C   0  0  0  0  0  0  0  0  0  0  0  0
  -13.7230  -23.4870  -26.1780 C   0  0  0  0  0  0  0  0  0  0  0  0
  -12.8150  -23.6530  -27.3900 C   0  0  0  0  0  0  0  0  0  0  0  0
  -14.9740  -24.3580  -26.1730 C   0  0  0  0  0  0  0  0  0  0  0  0
  -12.9130  -23.9850  -25.1460 O   0  0  0  0  0  0  0  0  0  0  0  0
  -13.8071  -15.3691  -28.4202 H   0  0  0  0  0  0  0  0  0  0  0  0
  -14.2324  -12.9039  -28.3685 H   0  0  0  0  0  0  0  0  0  0  0  0
  -16.5465  -13.3508  -24.7352 H   0  0  0  0  0  0  0  0  0  0  0  0
  -16.1759  -18.0581  -23.9959 H   0  0  0  0  0  0  0  0  0  0  0  0
  -14.0283  -19.4972  -23.7315 H   0  0  0  0  0  0  0  0  0  0  0  0
  -13.4723  -21.9127  -23.9558 H   0  0  0  0  0  0  0  0  0  0  0  0
  -14.9604  -21.8929  -28.0118 H   0  0  0  0  0  0  0  0  0  0  0  0
  -15.4985  -19.4866  -27.8003 H   0  0  0  0  0  0  0  0  0  0  0  0
  -11.7849  -23.8413  -27.0533 H   0  0  0  0  0  0  0  0  0  0  0  0
  -13.1638  -24.5023  -27.9959 H   0  0  0  0  0  0  0  0  0  0  0  0
  -12.8407  -22.7353  -27.9959 H   0  0  0  0  0  0  0  0  0  0  0  0
  -15.2721  -24.5656  -25.1347 H   0  0  0  0  0  0  0  0  0  0  0  0
  -15.7895  -23.8314  -26.6903 H   0  0  0  0  0  0  0  0  0  0  0  0
  -14.7631  -25.3056  -26.6903 H   0  0  0  0  0  0  0  0  0  0  0  0
  -13.3073  -23.7426  -24.2709 H   0  0  0  0  0  0  0  0  0  0  0  0
  1  3  2  0
  1  2  1  0
  2  4  2  0
  2  5  1  0
  3  6  1  0
  4  7  1  0
  4  9  1  0
  5 12  2  0
  6  8  1  0
  6  7  2  0
  9 11  2  0
  9 10  1  0
 10 12  1  0
 12 13  1  0
 13 14  2  0
 13 18  1  0
 14 15  1  0
 15 16  2  0
 16 17  1  0
 16 19  1  0
 17 18  2  0
 19 21  1  0
 19 22  1  0
 19 20  1  0
  1 23  1  0
  3 24  1  0
  7 25  1  0
 10 26  1  0
 14 27  1  0
 15 28  1  0
 17 29  1  0
 18 30  1  0
 20 31  1  0
 20 32  1  0
 20 33  1  0
 21 34  1  0
 21 35  1  0
 21 36  1  0
 22 37  1  0
M  END
>  <s_m_entry_id>  (19) 
2476

>  <MODEL>  (19) 
1

>  <REMARK>  (19) 
 VINA RESULT:   -11.141      0.000      0.000
 INTER + INTRA:         -13.239
 INTER:                 -12.798
 INTRA:                  -0.441
 UNBOUND:                -0.470
  Name = 5d
  5 active torsions:
  status: ('A' for Active; 'I' for Inactive)
    1  A    between atoms: C_12  and  C_13
    2  A    between atoms: C_16  and  C_19
    3  A    between atoms: C_19  and  O_20
    4  A    between atoms: C_19  and  C_21
    5  A    between atoms: C_19  and  C_22
                            x       y       z     vdW  Elec       q    Type
                         _______ _______ _______ _____ _____    ______ ____

>  <TORSDO>  (19) 
F 3

>  <s_m_Source_Path>  (19) 
/projects/mai/users/kmzp800_harry/pmx_colab/docking_jobs/tnks2/vina_prep/output_mcs

>  <s_m_Source_File>  (19) 
tnks_mcs_vina__all_poses.sdf

>  <i_m_Source_File_Index>  (19) 
94

$$$$
5j
     RDKit          3D

 37 39  0  0  1  0  0  0  0  0999 V2000
  -14.3760  -14.8850  -27.6770 C   0  0  0  0  0  0  0  0  0  0  0  0
  -14.8750  -15.6600  -26.6340 C   0  0  0  0  0  0  0  0  0  0  0  0
  -14.5840  -13.5090  -27.6580 C   0  0  0  0  0  0  0  0  0  0  0  0
  -15.6050  -15.0820  -25.5880 C   0  0  0  0  0  0  0  0  0  0  0  0
  -14.6090  -17.0250  -26.6500 N   0  0  0  0  0  0  0  0  0  0  0  0
  -15.2890  -12.9280  -26.6070 C   0  0  0  0  0  0  0  0  0  0  0  0
  -15.8090  -13.7070  -25.5660 C   0  0  0  0  0  0  0  0  0  0  0  0
  -16.1460  -15.9870  -24.4990 C   0  0  0  0  0  0  0  0  0  0  0  0
  -15.7930  -17.2800  -24.7020 N   0  0  0  0  0  0  0  0  0  0  0  0
  -16.8460  -15.6590  -23.5400 O   0  0  0  0  0  0  0  0  0  0  0  0
  -15.0420  -17.8170  -25.7300 C   0  0  0  0  0  0  0  0  0  0  0  0
  -15.4660  -11.5990  -26.6180 F   0  0  0  0  0  0  0  0  0  0  0  0
  -16.4930  -13.1420  -24.5480 F   0  0  0  0  0  0  0  0  0  0  0  0
  -14.7980  -19.2620  -25.7740 C   0  0  0  0  0  0  0  0  0  0  0  0
  -14.3660  -19.9650  -24.6430 C   0  0  0  0  0  0  0  0  0  0  0  0
  -14.1370  -21.3290  -24.7270 C   0  0  0  0  0  0  0  0  0  0  0  0
  -14.3410  -21.9990  -25.9360 C   0  0  0  0  0  0  0  0  0  0  0  0
  -14.7840  -21.3020  -27.0560 C   0  0  0  0  0  0  0  0  0  0  0  0
  -15.0080  -19.9440  -26.9780 C   0  0  0  0  0  0  0  0  0  0  0  0
  -13.9500  -23.4610  -26.0600 C   0  0  0  0  0  0  0  0  0  0  0  0
  -12.9140  -23.7020  -27.1580 C   0  0  0  0  0  0  0  0  0  0  0  0
  -15.2440  -24.2540  -26.1890 C   0  0  0  0  0  0  0  0  0  0  0  0
  -13.3090  -23.9870  -24.9350 O   0  0  0  0  0  0  0  0  0  0  0  0
  -13.8246  -15.3539  -28.5053 H   0  0  0  0  0  0  0  0  0  0  0  0
  -14.1921  -12.8814  -28.4719 H   0  0  0  0  0  0  0  0  0  0  0  0
  -16.1291  -17.9510  -23.9965 H   0  0  0  0  0  0  0  0  0  0  0  0
  -14.2089  -19.4365  -23.6912 H   0  0  0  0  0  0  0  0  0  0  0  0
  -13.7945  -21.8845  -23.8415 H   0  0  0  0  0  0  0  0  0  0  0  0
  -14.9554  -21.8344  -28.0032 H   0  0  0  0  0  0  0  0  0  0  0  0
  -15.3533  -19.3940  -27.8659 H   0  0  0  0  0  0  0  0  0  0  0  0
  -11.9400  -23.9286  -26.6998 H   0  0  0  0  0  0  0  0  0  0  0  0
  -13.2318  -24.5502  -27.7822 H   0  0  0  0  0  0  0  0  0  0  0  0
  -12.8248  -22.8006  -27.7822 H   0  0  0  0  0  0  0  0  0  0  0  0
  -15.6304  -24.4908  -25.1867 H   0  0  0  0  0  0  0  0  0  0  0  0
  -15.9874  -23.6562  -26.7367 H   0  0  0  0  0  0  0  0  0  0  0  0
  -15.0488  -25.1877  -26.7367 H   0  0  0  0  0  0  0  0  0  0  0  0
  -13.7385  -23.6346  -24.1156 H   0  0  0  0  0  0  0  0  0  0  0  0
  1  3  2  0
  1  2  1  0
  2  4  2  0
  2  5  1  0
  3  6  1  0
  4  7  1  0
  4  8  1  0
  5 11  2  0
  6  7  2  0
  6 12  1  0
  7 13  1  0
  8 10  2  0
  8  9  1  0
  9 11  1  0
 11 14  1  0
 14 15  2  0
 14 19  1  0
 15 16  1  0
 16 17  2  0
 17 18  1  0
 17 20  1  0
 18 19  2  0
 20 23  1  0
 20 21  1  0
 20 22  1  0
  1 24  1  0
  3 25  1  0
  9 26  1  0
 15 27  1  0
 16 28  1  0
 18 29  1  0
 19 30  1  0
 21 31  1  0
 21 32  1  0
 21 33  1  0
 22 34  1  0
 22 35  1  0
 22 36  1  0
 23 37  1  0
M  END
>  <s_m_entry_id>  (20) 
2478

>  <MODEL>  (20) 
1

>  <REMARK>  (20) 
 VINA RESULT:   -11.130      0.000      0.000
 INTER + INTRA:         -13.209
 INTER:                 -12.749
 INTRA:                  -0.459
 UNBOUND:                -0.452
  Name = 5j
  5 active torsions:
  status: ('A' for Active; 'I' for Inactive)
    1  A    between atoms: C_11  and  C_12
    2  A    between atoms: C_15  and  C_18
    3  A    between atoms: C_18  and  O_19
    4  A    between atoms: C_18  and  C_22
    5  A    between atoms: C_18  and  C_23
                            x       y       z     vdW  Elec       q    Type
                         _______ _______ _______ _____ _____    ______ ____

>  <TORSDO>  (20) 
F 3

>  <s_m_Source_Path>  (20) 
/projects/mai/users/kmzp800_harry/pmx_colab/docking_jobs/tnks2/vina_prep/output_mcs

>  <s_m_Source_File>  (20) 
tnks_mcs_vina__all_poses.sdf

>  <i_m_Source_File_Index>  (20) 
96

$$$$
5f
     RDKit          3D

 37 39  0  0  1  0  0  0  0  0999 V2000
  -14.5470  -14.6750  -27.4780 C   0  0  0  0  0  0  0  0  0  0  0  0
  -15.0210  -15.5630  -26.5060 C   0  0  0  0  0  0  0  0  0  0  0  0
  -14.7720  -13.3050  -27.3280 C   0  0  0  0  0  0  0  0  0  0  0  0
  -15.7840  -15.0790  -25.4350 C   0  0  0  0  0  0  0  0  0  0  0  0
  -14.6960  -16.9290  -26.5880 N   0  0  0  0  0  0  0  0  0  0  0  0
  -15.4890  -12.8270  -26.2320 C   0  0  0  0  0  0  0  0  0  0  0  0
  -16.0150  -13.7140  -25.2890 C   0  0  0  0  0  0  0  0  0  0  0  0
  -16.3360  -16.0720  -24.4430 C   0  0  0  0  0  0  0  0  0  0  0  0
  -15.8530  -17.3220  -24.6540 N   0  0  0  0  0  0  0  0  0  0  0  0
  -17.1520  -15.8310  -23.5610 O   0  0  0  0  0  0  0  0  0  0  0  0
  -15.0840  -17.7850  -25.6980 C   0  0  0  0  0  0  0  0  0  0  0  0
  -13.8220  -15.1170  -28.5340 F   0  0  0  0  0  0  0  0  0  0  0  0
  -14.7830  -19.2280  -25.7830 C   0  0  0  0  0  0  0  0  0  0  0  0
  -14.2750  -19.9450  -24.6900 C   0  0  0  0  0  0  0  0  0  0  0  0
  -13.9850  -21.2990  -24.8130 C   0  0  0  0  0  0  0  0  0  0  0  0
  -14.1930  -21.9540  -26.0280 C   0  0  0  0  0  0  0  0  0  0  0  0
  -14.7180  -21.2450  -27.1100 C   0  0  0  0  0  0  0  0  0  0  0  0
  -15.0130  -19.8990  -26.9880 C   0  0  0  0  0  0  0  0  0  0  0  0
  -13.7070  -23.3920  -26.2160 C   0  0  0  0  0  0  0  0  0  0  0  0
  -12.7570  -23.5810  -27.4050 C   0  0  0  0  0  0  0  0  0  0  0  0
  -14.9510  -24.2800  -26.2680 C   0  0  0  0  0  0  0  0  0  0  0  0
  -12.9270  -23.8690  -25.1530 O   0  0  0  0  0  0  0  0  0  0  0  0
  -14.3821  -12.6004  -28.0773 H   0  0  0  0  0  0  0  0  0  0  0  0
  -15.6416  -11.7446  -26.1088 H   0  0  0  0  0  0  0  0  0  0  0  0
  -16.6052  -13.3377  -24.4405 H   0  0  0  0  0  0  0  0  0  0  0  0
  -16.0944  -18.0195  -23.9356 H   0  0  0  0  0  0  0  0  0  0  0  0
  -14.1052  -19.4337  -23.7310 H   0  0  0  0  0  0  0  0  0  0  0  0
  -13.5905  -21.8559  -23.9503 H   0  0  0  0  0  0  0  0  0  0  0  0
  -14.8982  -21.7598  -28.0653 H   0  0  0  0  0  0  0  0  0  0  0  0
  -15.4318  -19.3522  -27.8457 H   0  0  0  0  0  0  0  0  0  0  0  0
  -11.7413  -23.7831  -27.0343 H   0  0  0  0  0  0  0  0  0  0  0  0
  -13.0994  -24.4286  -28.0168 H   0  0  0  0  0  0  0  0  0  0  0  0
  -12.7489  -22.6669  -28.0168 H   0  0  0  0  0  0  0  0  0  0  0  0
  -15.2780  -24.5134  -25.2440 H   0  0  0  0  0  0  0  0  0  0  0  0
  -15.7567  -23.7517  -26.7987 H   0  0  0  0  0  0  0  0  0  0  0  0
  -14.7131  -25.2137  -26.7987 H   0  0  0  0  0  0  0  0  0  0  0  0
  -13.3471  -23.6121  -24.2942 H   0  0  0  0  0  0  0  0  0  0  0  0
  1  3  2  0
  1  2  1  0
  1 12  1  0
  2  4  2  0
  2  5  1  0
  3  6  1  0
  4  7  1  0
  4  8  1  0
  5 11  2  0
  6  7  2  0
  8 10  2  0
  8  9  1  0
  9 11  1  0
 11 13  1  0
 13 14  2  0
 13 18  1  0
 14 15  1  0
 15 16  2  0
 16 17  1  0
 16 19  1  0
 17 18  2  0
 19 22  1  0
 19 20  1  0
 19 21  1  0
  3 23  1  0
  6 24  1  0
  7 25  1  0
  9 26  1  0
 14 27  1  0
 15 28  1  0
 17 29  1  0
 18 30  1  0
 20 31  1  0
 20 32  1  0
 20 33  1  0
 21 34  1  0
 21 35  1  0
 21 36  1  0
 22 37  1  0
M  END
>  <s_m_entry_id>  (21) 
2479

>  <MODEL>  (21) 
1

>  <REMARK>  (21) 
 VINA RESULT:   -11.629      0.000      0.000
 INTER + INTRA:         -13.790
 INTER:                 -13.344
 INTRA:                  -0.446
 UNBOUND:                -0.462
  Name = 5f
  5 active torsions:
  status: ('A' for Active; 'I' for Inactive)
    1  A    between atoms: C_11  and  C_12
    2  A    between atoms: C_15  and  C_18
    3  A    between atoms: C_18  and  O_19
    4  A    between atoms: C_18  and  C_20
    5  A    between atoms: C_18  and  C_21
                            x       y       z     vdW  Elec       q    Type
                         _______ _______ _______ _____ _____    ______ ____

>  <TORSDO>  (21) 
F 3

>  <s_m_Source_Path>  (21) 
/projects/mai/users/kmzp800_harry/pmx_colab/docking_jobs/tnks2/vina_prep/output_mcs

>  <s_m_Source_File>  (21) 
tnks_mcs_vina__all_poses.sdf

>  <i_m_Source_File_Index>  (21) 
97

$$$$
8d
     RDKit          3D

 45 48  0  0  1  0  0  0  0  0999 V2000
  -14.5540  -14.6670  -27.3900 C   0  0  0  0  0  0  0  0  0  0  0  0
  -15.0600  -15.5150  -26.3900 C   0  0  0  0  0  0  0  0  0  0  0  0
  -14.6830  -13.2850  -27.2420 C   0  0  0  0  0  0  0  0  0  0  0  0
  -15.7540  -14.9700  -25.3000 C   0  0  0  0  0  0  0  0  0  0  0  0
  -14.8510  -16.9040  -26.4750 N   0  0  0  0  0  0  0  0  0  0  0  0
  -15.3340  -12.7470  -26.1370 C   0  0  0  0  0  0  0  0  0  0  0  0
  -15.8910  -13.5840  -25.1660 C   0  0  0  0  0  0  0  0  0  0  0  0
  -16.3460  -15.9210  -24.2820 C   0  0  0  0  0  0  0  0  0  0  0  0
  -15.9570  -17.2110  -24.5020 N   0  0  0  0  0  0  0  0  0  0  0  0
  -17.1220  -15.6110  -23.3740 O   0  0  0  0  0  0  0  0  0  0  0  0
  -15.2640  -17.7370  -25.5780 C   0  0  0  0  0  0  0  0  0  0  0  0
  -13.8310  -15.1990  -28.6170 C   0  0  0  0  0  0  0  0  0  0  0  0
  -15.4190  -11.4040  -26.0250 F   0  0  0  0  0  0  0  0  0  0  0  0
  -15.0540  -19.2040  -25.7040 C   0  0  0  0  0  0  0  0  0  0  0  0
  -14.9700  -19.7810  -26.9820 C   0  0  0  0  0  0  0  0  0  0  0  0
  -14.8070  -21.1530  -27.1420 C   0  0  0  0  0  0  0  0  0  0  0  0
  -14.7140  -21.9890  -26.0260 C   0  0  0  0  0  0  0  0  0  0  0  0
  -14.7750  -21.4200  -24.7500 C   0  0  0  0  0  0  0  0  0  0  0  0
  -14.9490  -20.0450  -24.5880 C   0  0  0  0  0  0  0  0  0  0  0  0
  -14.6400  -23.5170  -26.1840 C   0  0  0  0  0  0  0  0  0  0  0  0
  -13.2500  -24.0720  -26.5920 C   0  0  0  0  0  0  0  0  0  0  0  0
  -13.2100  -25.5780  -27.0140 C   0  0  0  0  0  0  0  0  0  0  0  0
  -14.3880  -25.9330  -27.9200 N   0  0  0  0  0  0  0  0  0  0  0  0
  -15.7020  -25.5340  -27.2550 C   0  0  0  0  0  0  0  0  0  0  0  0
  -15.7170  -24.0050  -27.1630 C   0  0  0  0  0  0  0  0  0  0  0  0
  -14.2654  -12.6144  -28.0074 H   0  0  0  0  0  0  0  0  0  0  0  0
  -16.4304  -13.1583  -24.3070 H   0  0  0  0  0  0  0  0  0  0  0  0
  -16.2145  -17.8847  -23.7667 H   0  0  0  0  0  0  0  0  0  0  0  0
  -12.9825  -15.8234  -28.3006 H   0  0  0  0  0  0  0  0  0  0  0  0
  -14.5260  -15.8027  -29.2191 H   0  0  0  0  0  0  0  0  0  0  0  0
  -13.4614  -14.3559  -29.2191 H   0  0  0  0  0  0  0  0  0  0  0  0
  -15.0342  -19.1368  -27.8713 H   0  0  0  0  0  0  0  0  0  0  0  0
  -14.7510  -21.5826  -28.1531 H   0  0  0  0  0  0  0  0  0  0  0  0
  -14.6847  -22.0643  -23.8630 H   0  0  0  0  0  0  0  0  0  0  0  0
  -15.0042  -19.6177  -23.5759 H   0  0  0  0  0  0  0  0  0  0  0  0
  -14.8247  -23.9183  -25.1766 H   0  0  0  0  0  0  0  0  0  0  0  0
  -12.8850  -23.4748  -27.4406 H   0  0  0  0  0  0  0  0  0  0  0  0
  -12.6253  -24.0001  -25.6895 H   0  0  0  0  0  0  0  0  0  0  0  0
  -12.2716  -25.7740  -27.5533 H   0  0  0  0  0  0  0  0  0  0  0  0
  -13.2732  -26.1946  -26.1053 H   0  0  0  0  0  0  0  0  0  0  0  0
  -14.2929  -25.4310  -28.8143 H   0  0  0  0  0  0  0  0  0  0  0  0
  -16.5518  -25.8835  -27.8597 H   0  0  0  0  0  0  0  0  0  0  0  0
  -15.7871  -25.9862  -26.2559 H   0  0  0  0  0  0  0  0  0  0  0  0
  -16.7046  -23.6728  -26.8104 H   0  0  0  0  0  0  0  0  0  0  0  0
  -15.5103  -23.5857  -28.1587 H   0  0  0  0  0  0  0  0  0  0  0  0
  1  3  2  0
  1  2  1  0
  1 12  1  0
  2  4  2  0
  2  5  1  0
  3  6  1  0
  4  7  1  0
  4  8  1  0
  5 11  2  0
  6 13  1  0
  6  7  2  0
  8 10  2  0
  8  9  1  0
  9 11  1  0
 11 14  1  0
 14 19  1  0
 14 15  2  0
 15 16  1  0
 16 17  2  0
 17 18  1  0
 17 20  1  0
 18 19  2  0
 20 21  1  0
 20 25  1  0
 21 22  1  0
 22 23  1  0
 23 24  1  0
 24 25  1  0
  3 26  1  0
  7 27  1  0
  9 28  1  0
 12 29  1  0
 12 30  1  0
 12 31  1  0
 15 32  1  0
 16 33  1  0
 18 34  1  0
 19 35  1  0
 20 36  1  0
 21 37  1  0
 21 38  1  0
 22 39  1  0
 22 40  1  0
 23 41  1  0
 24 42  1  0
 24 43  1  0
 25 44  1  0
 25 45  1  0
M  END
>  <s_m_entry_id>  (22) 
2480

>  <MODEL>  (22) 
1

>  <REMARK>  (22) 
 VINA RESULT:   -11.655      0.000      0.000
 INTER + INTRA:         -13.481
 INTER:                 -13.006
 INTRA:                  -0.474
 UNBOUND:                -0.463
  Name = 8d
  3 active torsions:
  status: ('A' for Active; 'I' for Inactive)
    1  A    between atoms: C_1  and  C_18
    2  A    between atoms: C_11  and  C_12
    3  A    between atoms: C_15  and  C_20
                            x       y       z     vdW  Elec       q    Type
                         _______ _______ _______ _____ _____    ______ ____

>  <TORSDO>  (22) 
F 2

>  <s_m_Source_Path>  (22) 
/projects/mai/users/kmzp800_harry/pmx_colab/docking_jobs/tnks2/vina_prep/output_mcs

>  <s_m_Source_File>  (22) 
tnks_mcs_vina__all_poses.sdf

>  <i_m_Source_File_Index>  (22) 
98

$$$$
5b
     RDKit          3D

 37 39  0  0  1  0  0  0  0  0999 V2000
  -14.4260  -14.7540  -28.0720 C   0  0  0  0  0  0  0  0  0  0  0  0
  -14.8710  -15.5280  -26.9990 C   0  0  0  0  0  0  0  0  0  0  0  0
  -14.5810  -13.3660  -28.0350 C   0  0  0  0  0  0  0  0  0  0  0  0
  -15.5270  -14.9240  -25.9230 C   0  0  0  0  0  0  0  0  0  0  0  0
  -14.6270  -16.9100  -27.0080 N   0  0  0  0  0  0  0  0  0  0  0  0
  -15.2020  -12.7620  -26.9390 C   0  0  0  0  0  0  0  0  0  0  0  0
  -15.6820  -13.5420  -25.8830 C   0  0  0  0  0  0  0  0  0  0  0  0
  -16.0450  -15.8090  -24.8110 C   0  0  0  0  0  0  0  0  0  0  0  0
  -15.6570  -17.0970  -24.9720 N   0  0  0  0  0  0  0  0  0  0  0  0
  -16.7640  -15.4720  -23.8720 O   0  0  0  0  0  0  0  0  0  0  0  0
  -14.9770  -17.6750  -26.0250 C   0  0  0  0  0  0  0  0  0  0  0  0
  -16.2730  -12.9590  -24.8240 F   0  0  0  0  0  0  0  0  0  0  0  0
  -14.7300  -19.1290  -25.9930 C   0  0  0  0  0  0  0  0  0  0  0  0
  -14.0110  -19.6850  -24.9270 C   0  0  0  0  0  0  0  0  0  0  0  0
  -13.7930  -21.0530  -24.8620 C   0  0  0  0  0  0  0  0  0  0  0  0
  -14.2870  -21.8910  -25.8590 C   0  0  0  0  0  0  0  0  0  0  0  0
  -14.9870  -21.3420  -26.9370 C   0  0  0  0  0  0  0  0  0  0  0  0
  -15.2030  -19.9740  -27.0080 C   0  0  0  0  0  0  0  0  0  0  0  0
  -14.1720  -23.4110  -25.7320 C   0  0  0  0  0  0  0  0  0  0  0  0
  -13.1050  -23.8350  -24.7240 C   0  0  0  0  0  0  0  0  0  0  0  0
  -14.0070  -23.9850  -27.1350 C   0  0  0  0  0  0  0  0  0  0  0  0
  -15.3080  -24.0500  -25.2200 O   0  0  0  0  0  0  0  0  0  0  0  0
  -13.9556  -15.2346  -28.9425 H   0  0  0  0  0  0  0  0  0  0  0  0
  -14.2142  -12.7490  -28.8685 H   0  0  0  0  0  0  0  0  0  0  0  0
  -15.3137  -11.6682  -26.9069 H   0  0  0  0  0  0  0  0  0  0  0  0
  -15.9039  -17.7338  -24.2010 H   0  0  0  0  0  0  0  0  0  0  0  0
  -13.6162  -19.0313  -24.1353 H   0  0  0  0  0  0  0  0  0  0  0  0
  -13.2276  -21.4781  -24.0196 H   0  0  0  0  0  0  0  0  0  0  0  0
  -15.3685  -21.9983  -27.7331 H   0  0  0  0  0  0  0  0  0  0  0  0
  -15.7478  -19.5495  -27.8642 H   0  0  0  0  0  0  0  0  0  0  0  0
  -13.4848  -23.6841  -23.7027 H   0  0  0  0  0  0  0  0  0  0  0  0
  -12.8627  -24.8978  -24.8718 H   0  0  0  0  0  0  0  0  0  0  0  0
  -12.1993  -23.2284  -24.8718 H   0  0  0  0  0  0  0  0  0  0  0  0
  -13.7037  -25.0401  -27.0662 H   0  0  0  0  0  0  0  0  0  0  0  0
  -14.9623  -23.9126  -27.6755 H   0  0  0  0  0  0  0  0  0  0  0  0
  -13.2359  -23.4164  -27.6755 H   0  0  0  0  0  0  0  0  0  0  0  0
  -15.2783  -24.0333  -24.2306 H   0  0  0  0  0  0  0  0  0  0  0  0
  1  3  2  0
  1  2  1  0
  2  4  2  0
  2  5  1  0
  3  6  1  0
  4  7  1  0
  4  8  1  0
  5 11  2  0
  6  7  2  0
  7 12  1  0
  8 10  2  0
  8  9  1  0
  9 11  1  0
 11 13  1  0
 13 14  2  0
 13 18  1  0
 14 15  1  0
 15 16  2  0
 16 19  1  0
 16 17  1  0
 17 18  2  0
 19 22  1  0
 19 20  1  0
 19 21  1  0
  1 23  1  0
  3 24  1  0
  6 25  1  0
  9 26  1  0
 14 27  1  0
 15 28  1  0
 17 29  1  0
 18 30  1  0
 20 31  1  0
 20 32  1  0
 20 33  1  0
 21 34  1  0
 21 35  1  0
 21 36  1  0
 22 37  1  0
M  END
>  <s_m_entry_id>  (23) 
2483

>  <MODEL>  (23) 
2

>  <REMARK>  (23) 
 VINA RESULT:    -9.160      0.809      1.384
 INTER + INTRA:         -10.955
 INTER:                 -10.532
 INTRA:                  -0.423
 UNBOUND:                -0.456
  Name = 5b
  5 active torsions:
  status: ('A' for Active; 'I' for Inactive)
    1  A    between atoms: C_11  and  C_12
    2  A    between atoms: C_15  and  C_18
    3  A    between atoms: C_18  and  O_19
    4  A    between atoms: C_18  and  C_20
    5  A    between atoms: C_18  and  C_21
                            x       y       z     vdW  Elec       q    Type
                         _______ _______ _______ _____ _____    ______ ____

>  <TORSDO>  (23) 
F 3

>  <s_m_Source_Path>  (23) 
/projects/mai/users/kmzp800_harry/pmx_colab/docking_jobs/tnks2/vina_prep/output_mcs

>  <s_m_Source_File>  (23) 
tnks_mcs_vina__all_poses.sdf

>  <i_m_Source_File_Index>  (23) 
101

$$$$
3b
     RDKit          3D

 39 41  0  0  1  0  0  0  0  0999 V2000
  -14.3590  -14.9540  -27.6560 C   0  0  0  0  0  0  0  0  0  0  0  0
  -14.8840  -15.7270  -26.6250 C   0  0  0  0  0  0  0  0  0  0  0  0
  -14.5430  -13.5770  -27.6260 C   0  0  0  0  0  0  0  0  0  0  0  0
  -15.6340  -15.1510  -25.5940 C   0  0  0  0  0  0  0  0  0  0  0  0
  -14.6290  -17.0900  -26.6440 N   0  0  0  0  0  0  0  0  0  0  0  0
  -15.2740  -13.0020  -26.5870 C   0  0  0  0  0  0  0  0  0  0  0  0
  -15.8380  -13.7750  -25.5710 C   0  0  0  0  0  0  0  0  0  0  0  0
  -16.2030  -16.0680  -24.5310 C   0  0  0  0  0  0  0  0  0  0  0  0
  -15.7590  -17.3460  -24.6730 N   0  0  0  0  0  0  0  0  0  0  0  0
  -17.0040  -15.7530  -23.6500 O   0  0  0  0  0  0  0  0  0  0  0  0
  -15.0330  -17.8840  -25.7140 C   0  0  0  0  0  0  0  0  0  0  0  0
  -15.4430  -11.6810  -26.5860 F   0  0  0  0  0  0  0  0  0  0  0  0
  -14.7640  -19.3240  -25.7810 C   0  0  0  0  0  0  0  0  0  0  0  0
  -15.0310  -19.9780  -26.9870 C   0  0  0  0  0  0  0  0  0  0  0  0
  -14.7450  -21.3140  -27.1380 C   0  0  0  0  0  0  0  0  0  0  0  0
  -14.1960  -22.0430  -26.0810 C   0  0  0  0  0  0  0  0  0  0  0  0
  -13.9590  -21.4040  -24.8590 C   0  0  0  0  0  0  0  0  0  0  0  0
  -14.2420  -20.0500  -24.7050 C   0  0  0  0  0  0  0  0  0  0  0  0
  -13.8100  -23.5140  -26.2760 C   0  0  0  0  0  0  0  0  0  0  0  0
  -13.1280  -24.0070  -24.9990 C   0  0  0  0  0  0  0  0  0  0  0  0
  -12.8370  -23.7040  -27.4430 C   0  0  0  0  0  0  0  0  0  0  0  0
  -15.0220  -24.3730  -26.6360 C   0  0  0  0  0  0  0  0  0  0  0  0
  -13.8068  -15.4257  -28.4821 H   0  0  0  0  0  0  0  0  0  0  0  0
  -14.1145  -12.9442  -28.4172 H   0  0  0  0  0  0  0  0  0  0  0  0
  -16.4301  -13.3072  -24.7706 H   0  0  0  0  0  0  0  0  0  0  0  0
  -15.9948  -17.9926  -23.9067 H   0  0  0  0  0  0  0  0  0  0  0  0
  -15.4744  -19.4181  -27.8236 H   0  0  0  0  0  0  0  0  0  0  0  0
  -14.9498  -21.8119  -28.0972 H   0  0  0  0  0  0  0  0  0  0  0  0
  -13.5463  -21.9755  -24.0145 H   0  0  0  0  0  0  0  0  0  0  0  0
  -14.0561  -19.5529  -23.7415 H   0  0  0  0  0  0  0  0  0  0  0  0
  -13.6663  -23.6179  -24.1222 H   0  0  0  0  0  0  0  0  0  0  0  0
  -13.1398  -25.1067  -24.9782 H   0  0  0  0  0  0  0  0  0  0  0  0
  -12.0874  -23.6510  -24.9782 H   0  0  0  0  0  0  0  0  0  0  0  0
  -11.8283  -23.9010  -27.0510 H   0  0  0  0  0  0  0  0  0  0  0  0
  -13.1640  -24.5553  -28.0582 H   0  0  0  0  0  0  0  0  0  0  0  0
  -12.8197  -22.7923  -28.0582 H   0  0  0  0  0  0  0  0  0  0  0  0
  -15.5120  -24.7203  -25.7144 H   0  0  0  0  0  0  0  0  0  0  0  0
  -15.7324  -23.7757  -27.2263 H   0  0  0  0  0  0  0  0  0  0  0  0
  -14.6938  -25.2412  -27.2263 H   0  0  0  0  0  0  0  0  0  0  0  0
  1  3  2  0
  1  2  1  0
  2  4  2  0
  2  5  1  0
  3  6  1  0
  4  7  1  0
  4  8  1  0
  5 11  2  0
  6 12  1  0
  6  7  2  0
  8 10  2  0
  8  9  1  0
  9 11  1  0
 11 13  1  0
 13 18  1  0
 13 14  2  0
 14 15  1  0
 15 16  2  0
 16 17  1  0
 16 19  1  0
 17 18  2  0
 19 20  1  0
 19 21  1  0
 19 22  1  0
  1 23  1  0
  3 24  1  0
  7 25  1  0
  9 26  1  0
 14 27  1  0
 15 28  1  0
 17 29  1  0
 18 30  1  0
 20 31  1  0
 20 32  1  0
 20 33  1  0
 21 34  1  0
 21 35  1  0
 21 36  1  0
 22 37  1  0
 22 38  1  0
 22 39  1  0
M  END
>  <s_m_entry_id>  (24) 
2488

>  <MODEL>  (24) 
1

>  <REMARK>  (24) 
 VINA RESULT:   -11.696      0.000      0.000
 INTER + INTRA:         -13.588
 INTER:                 -13.087
 INTRA:                  -0.501
 UNBOUND:                -0.525
  Name = 3b
  5 active torsions:
  status: ('A' for Active; 'I' for Inactive)
    1  A    between atoms: C_11  and  C_12
    2  A    between atoms: C_15  and  C_19
    3  A    between atoms: C_19  and  C_20
    4  A    between atoms: C_19  and  C_21
    5  A    between atoms: C_19  and  C_22
                            x       y       z     vdW  Elec       q    Type
                         _______ _______ _______ _____ _____    ______ ____

>  <TORSDO>  (24) 
F 2

>  <s_m_Source_Path>  (24) 
/projects/mai/users/kmzp800_harry/pmx_colab/docking_jobs/tnks2/vina_prep/output_mcs

>  <s_m_Source_File>  (24) 
tnks_mcs_vina__all_poses.sdf

>  <i_m_Source_File_Index>  (24) 
106

$$$$
1b
     RDKit          3D

 31 33  0  0  1  0  0  0  0  0999 V2000
  -14.7710  -17.2570  -26.4660 N   0  0  0  0  0  0  0  0  0  0  0  0
  -14.9990  -15.8790  -26.5030 C   0  0  0  0  0  0  0  0  0  0  0  0
  -15.7530  -15.2640  -25.4940 C   0  0  0  0  0  0  0  0  0  0  0  0
  -15.3610  -13.1420  -26.5270 C   0  0  0  0  0  0  0  0  0  0  0  0
  -14.6260  -13.7400  -27.5430 C   0  0  0  0  0  0  0  0  0  0  0  0
  -15.9370  -13.8830  -25.5010 C   0  0  0  0  0  0  0  0  0  0  0  0
  -14.4590  -15.1210  -27.5540 C   0  0  0  0  0  0  0  0  0  0  0  0
  -16.3780  -16.1320  -24.4220 C   0  0  0  0  0  0  0  0  0  0  0  0
  -16.0360  -17.4420  -24.5710 N   0  0  0  0  0  0  0  0  0  0  0  0
  -15.2460  -18.0210  -25.5460 C   0  0  0  0  0  0  0  0  0  0  0  0
  -17.1400  -15.7550  -23.5290 O   0  0  0  0  0  0  0  0  0  0  0  0
  -14.9950  -19.4720  -25.5550 C   0  0  0  0  0  0  0  0  0  0  0  0
  -14.9050  -20.1360  -26.7860 C   0  0  0  0  0  0  0  0  0  0  0  0
  -14.8400  -20.1980  -24.3690 C   0  0  0  0  0  0  0  0  0  0  0  0
  -14.6580  -21.4940  -26.8350 C   0  0  0  0  0  0  0  0  0  0  0  0
  -14.5730  -21.5600  -24.4220 C   0  0  0  0  0  0  0  0  0  0  0  0
  -14.4820  -22.2160  -25.6570 C   0  0  0  0  0  0  0  0  0  0  0  0
  -14.2220  -23.5530  -25.7080 O   0  0  0  0  0  0  0  0  0  0  0  0
  -13.1220  -23.8120  -26.6950 C   0  0  0  0  0  0  0  0  0  0  0  0
  -15.4912  -12.0498  -26.5344 H   0  0  0  0  0  0  0  0  0  0  0  0
  -14.1776  -13.1236  -28.3361 H   0  0  0  0  0  0  0  0  0  0  0  0
  -16.5247  -13.3899  -24.7126 H   0  0  0  0  0  0  0  0  0  0  0  0
  -13.9125  -15.6113  -28.3732 H   0  0  0  0  0  0  0  0  0  0  0  0
  -16.4165  -18.0864  -23.8633 H   0  0  0  0  0  0  0  0  0  0  0  0
  -15.0322  -19.5708  -27.7211 H   0  0  0  0  0  0  0  0  0  0  0  0
  -14.9294  -19.6912  -23.3968 H   0  0  0  0  0  0  0  0  0  0  0  0
  -14.6001  -22.0065  -27.8066 H   0  0  0  0  0  0  0  0  0  0  0  0
  -14.4322  -22.1267  -23.4898 H   0  0  0  0  0  0  0  0  0  0  0  0
  -12.1891  -24.0316  -26.1551 H   0  0  0  0  0  0  0  0  0  0  0  0
  -13.3911  -24.6714  -27.3268 H   0  0  0  0  0  0  0  0  0  0  0  0
  -12.9794  -22.9229  -27.3268 H   0  0  0  0  0  0  0  0  0  0  0  0
  1 10  2  0
  1  2  1  0
  2  3  2  0
  2  7  1  0
  3  8  1  0
  3  6  1  0
  4  6  2  0
  4  5  1  0
  5  7  2  0
  8 11  2  0
  8  9  1  0
  9 10  1  0
 10 12  1  0
 12 14  1  0
 12 13  2  0
 13 15  1  0
 14 16  2  0
 15 17  2  0
 16 17  1  0
 17 18  1  0
 18 19  1  0
  4 20  1  0
  5 21  1  0
  6 22  1  0
  7 23  1  0
  9 24  1  0
 13 25  1  0
 14 26  1  0
 15 27  1  0
 16 28  1  0
 19 29  1  0
 19 30  1  0
 19 31  1  0
M  END
>  <s_m_entry_id>  (25) 
2490

>  <MODEL>  (25) 
1

>  <REMARK>  (25) 
 VINA RESULT:   -10.618      0.000      0.000
 INTER + INTRA:         -12.110
 INTER:                 -11.832
 INTRA:                  -0.278
 UNBOUND:                -0.250
  Name = 1b
  3 active torsions:
  status: ('A' for Active; 'I' for Inactive)
    1  A    between atoms: C_1  and  C_16
    2  A    between atoms: C_7  and  O_27
    3  A    between atoms: O_27  and  C_28
                            x       y       z     vdW  Elec       q    Type
                         _______ _______ _______ _____ _____    ______ ____

>  <TORSDO>  (25) 
F 2

>  <s_m_Source_Path>  (25) 
/projects/mai/users/kmzp800_harry/pmx_colab/docking_jobs/tnks2/vina_prep/output_mcs

>  <s_m_Source_File>  (25) 
tnks_mcs_vina__all_poses.sdf

>  <i_m_Source_File_Index>  (25) 
108

$$$$
3a
     RDKit          3D

 39 41  0  0  1  0  0  0  0  0999 V2000
  -14.7370  -17.0300  -26.6270 N   0  0  0  0  0  0  0  0  0  0  0  0
  -15.1130  -17.8850  -25.7320 C   0  0  0  0  0  0  0  0  0  0  0  0
  -15.7910  -17.4100  -24.6290 N   0  0  0  0  0  0  0  0  0  0  0  0
  -16.1550  -16.1420  -24.3310 C   0  0  0  0  0  0  0  0  0  0  0  0
  -16.8660  -15.8960  -23.3600 O   0  0  0  0  0  0  0  0  0  0  0  0
  -14.9760  -15.6530  -26.4770 C   0  0  0  0  0  0  0  0  0  0  0  0
  -15.6300  -15.1540  -25.3440 C   0  0  0  0  0  0  0  0  0  0  0  0
  -15.7870  -13.7820  -25.1620 C   0  0  0  0  0  0  0  0  0  0  0  0
  -15.2900  -12.9060  -26.1290 C   0  0  0  0  0  0  0  0  0  0  0  0
  -14.6690  -13.3970  -27.2800 C   0  0  0  0  0  0  0  0  0  0  0  0
  -14.5240  -14.7750  -27.4630 C   0  0  0  0  0  0  0  0  0  0  0  0
  -14.8830  -19.3370  -25.8290 C   0  0  0  0  0  0  0  0  0  0  0  0
  -14.2360  -20.0250  -24.7980 C   0  0  0  0  0  0  0  0  0  0  0  0
  -13.9340  -21.3670  -24.9320 C   0  0  0  0  0  0  0  0  0  0  0  0
  -14.2330  -22.0470  -26.1110 C   0  0  0  0  0  0  0  0  0  0  0  0
  -14.9730  -21.3920  -27.1040 C   0  0  0  0  0  0  0  0  0  0  0  0
  -15.2890  -20.0460  -26.9650 C   0  0  0  0  0  0  0  0  0  0  0  0
  -13.6470  -23.4550  -26.3010 C   0  0  0  0  0  0  0  0  0  0  0  0
  -13.0230  -23.9520  -24.9760 C   0  0  0  0  0  0  0  0  0  0  0  0
  -12.6180  -23.4020  -27.4610 C   0  0  0  0  0  0  0  0  0  0  0  0
  -14.6920  -24.4740  -26.7430 C   0  0  0  0  0  0  0  0  0  0  0  0
  -16.0579  -18.1216  -23.9338 H   0  0  0  0  0  0  0  0  0  0  0  0
  -16.2962  -13.3935  -24.2677 H   0  0  0  0  0  0  0  0  0  0  0  0
  -15.3883  -11.8201  -25.9833 H   0  0  0  0  0  0  0  0  0  0  0  0
  -14.2939  -12.6987  -28.0427 H   0  0  0  0  0  0  0  0  0  0  0  0
  -14.0563  -15.1652  -28.3790 H   0  0  0  0  0  0  0  0  0  0  0  0
  -13.9653  -19.4942  -23.8733 H   0  0  0  0  0  0  0  0  0  0  0  0
  -13.4533  -21.9032  -24.1005 H   0  0  0  0  0  0  0  0  0  0  0  0
  -15.3046  -21.9444  -27.9956 H   0  0  0  0  0  0  0  0  0  0  0  0
  -15.8618  -19.5348  -27.7528 H   0  0  0  0  0  0  0  0  0  0  0  0
  -13.5701  -23.5163  -24.1269 H   0  0  0  0  0  0  0  0  0  0  0  0
  -13.0871  -25.0491  -24.9293 H   0  0  0  0  0  0  0  0  0  0  0  0
  -11.9680  -23.6441  -24.9293 H   0  0  0  0  0  0  0  0  0  0  0  0
  -11.6005  -23.3496  -27.0464 H   0  0  0  0  0  0  0  0  0  0  0  0
  -12.7158  -24.3064  -28.0795 H   0  0  0  0  0  0  0  0  0  0  0  0
  -12.8082  -22.5125  -28.0795 H   0  0  0  0  0  0  0  0  0  0  0  0
  -15.1584  -24.9288  -25.8567 H   0  0  0  0  0  0  0  0  0  0  0  0
  -15.4627  -23.9710  -27.3456 H   0  0  0  0  0  0  0  0  0  0  0  0
  -14.2086  -25.2571  -27.3456 H   0  0  0  0  0  0  0  0  0  0  0  0
  1  6  1  0
  1  2  2  0
  2  3  1  0
  2 12  1  0
  3  4  1  0
  4  5  2  0
  4  7  1  0
  6  7  2  0
  6 11  1  0
  7  8  1  0
  8  9  2  0
  9 10  1  0
 10 11  2  0
 12 13  2  0
 12 17  1  0
 13 14  1  0
 14 15  2  0
 15 16  1  0
 15 18  1  0
 16 17  2  0
 18 19  1  0
 18 20  1  0
 18 21  1  0
  3 22  1  0
  8 23  1  0
  9 24  1  0
 10 25  1  0
 11 26  1  0
 13 27  1  0
 14 28  1  0
 16 29  1  0
 17 30  1  0
 19 31  1  0
 19 32  1  0
 19 33  1  0
 20 34  1  0
 20 35  1  0
 20 36  1  0
 21 37  1  0
 21 38  1  0
 21 39  1  0
M  END
>  <s_m_entry_id>  (26) 
2495

>  <MODEL>  (26) 
1

>  <REMARK>  (26) 
 VINA RESULT:   -11.246      0.000      0.000
 INTER + INTRA:         -13.075
 INTER:                 -12.586
 INTRA:                  -0.488
 UNBOUND:                -0.513
  Name = 3a
  5 active torsions:
  status: ('A' for Active; 'I' for Inactive)
    1  A    between atoms: C_2  and  C_6
    2  A    between atoms: C_9  and  C_12
    3  A    between atoms: C_12  and  C_19
    4  A    between atoms: C_12  and  C_20
    5  A    between atoms: C_12  and  C_21
                            x       y       z     vdW  Elec       q    Type
                         _______ _______ _______ _____ _____    ______ ____

>  <TORSDO>  (26) 
F 2

>  <s_m_Source_Path>  (26) 
/projects/mai/users/kmzp800_harry/pmx_colab/docking_jobs/tnks2/vina_prep/output_mcs

>  <s_m_Source_File>  (26) 
tnks_mcs_vina__all_poses.sdf

>  <i_m_Source_File_Index>  (26) 
113

$$$$
1a
     RDKit          3D

 27 29  0  0  1  0  0  0  0  0999 V2000
  -14.7850  -17.2890  -26.4420 N   0  0  0  0  0  0  0  0  0  0  0  0
  -15.0180  -15.9130  -26.4800 C   0  0  0  0  0  0  0  0  0  0  0  0
  -15.7770  -15.3000  -25.4720 C   0  0  0  0  0  0  0  0  0  0  0  0
  -15.3910  -13.1770  -26.5040 C   0  0  0  0  0  0  0  0  0  0  0  0
  -14.6510  -13.7720  -27.5180 C   0  0  0  0  0  0  0  0  0  0  0  0
  -15.9660  -13.9200  -25.4790 C   0  0  0  0  0  0  0  0  0  0  0  0
  -14.4780  -15.1520  -27.5290 C   0  0  0  0  0  0  0  0  0  0  0  0
  -16.4010  -16.1720  -24.4010 C   0  0  0  0  0  0  0  0  0  0  0  0
  -16.0540  -17.4800  -24.5500 N   0  0  0  0  0  0  0  0  0  0  0  0
  -15.2600  -18.0550  -25.5230 C   0  0  0  0  0  0  0  0  0  0  0  0
  -17.1660  -15.7970  -23.5100 O   0  0  0  0  0  0  0  0  0  0  0  0
  -15.0030  -19.5060  -25.5320 C   0  0  0  0  0  0  0  0  0  0  0  0
  -14.9000  -20.1680  -26.7640 C   0  0  0  0  0  0  0  0  0  0  0  0
  -14.8550  -20.2330  -24.3460 C   0  0  0  0  0  0  0  0  0  0  0  0
  -14.6490  -21.5250  -26.8120 C   0  0  0  0  0  0  0  0  0  0  0  0
  -14.5820  -21.5930  -24.3990 C   0  0  0  0  0  0  0  0  0  0  0  0
  -14.4790  -22.2470  -25.6340 C   0  0  0  0  0  0  0  0  0  0  0  0
  -15.5261  -12.0854  -26.5122 H   0  0  0  0  0  0  0  0  0  0  0  0
  -14.2032  -13.1536  -28.3098 H   0  0  0  0  0  0  0  0  0  0  0  0
  -16.5567  -13.4291  -24.6915 H   0  0  0  0  0  0  0  0  0  0  0  0
  -13.9268  -15.6395  -28.3467 H   0  0  0  0  0  0  0  0  0  0  0  0
  -16.4338  -18.1263  -23.8437 H   0  0  0  0  0  0  0  0  0  0  0  0
  -15.0201  -19.6018  -27.6994 H   0  0  0  0  0  0  0  0  0  0  0  0
  -14.9547  -19.7282  -23.3738 H   0  0  0  0  0  0  0  0  0  0  0  0
  -14.5832  -22.0368  -27.7835 H   0  0  0  0  0  0  0  0  0  0  0  0
  -14.4458  -22.1604  -23.4665 H   0  0  0  0  0  0  0  0  0  0  0  0
  -14.2649  -23.3253  -25.6724 H   0  0  0  0  0  0  0  0  0  0  0  0
  1 10  2  0
  1  2  1  0
  2  3  2  0
  2  7  1  0
  3  8  1  0
  3  6  1  0
  4  6  2  0
  4  5  1  0
  5  7  2  0
  8 11  2  0
  8  9  1  0
  9 10  1  0
 10 12  1  0
 12 14  1  0
 12 13  2  0
 13 15  1  0
 14 16  2  0
 15 17  2  0
 16 17  1  0
  4 18  1  0
  5 19  1  0
  6 20  1  0
  7 21  1  0
  9 22  1  0
 13 23  1  0
 14 24  1  0
 15 25  1  0
 16 26  1  0
 17 27  1  0
M  END
>  <s_m_entry_id>  (27) 
2498

>  <MODEL>  (27) 
1

>  <REMARK>  (27) 
 VINA RESULT:   -10.563      0.000      0.000
 INTER + INTRA:         -11.371
 INTER:                 -11.158
 INTRA:                  -0.213
 UNBOUND:                -0.191
  Name = 1a
  1 active torsions:
  status: ('A' for Active; 'I' for Inactive)
    1  A    between atoms: C_1  and  C_16
                            x       y       z     vdW  Elec       q    Type
                         _______ _______ _______ _____ _____    ______ ____

>  <TORSDO>  (27) 
F 1

>  <s_m_Source_Path>  (27) 
/projects/mai/users/kmzp800_harry/pmx_colab/docking_jobs/tnks2/vina_prep/output_mcs

>  <s_m_Source_File>  (27) 
tnks_mcs_vina__all_poses.sdf

>  <i_m_Source_File_Index>  (27) 
116

$$$$
