5n
                    3D
 Schrodinger Suite 2021-4.
 44 46  0  0  1  0            999 V2000
  -15.0888  -19.4177  -25.7519 C   0  0  0  0  0  0
  -15.0846  -20.1723  -24.5572 C   0  0  0  0  0  0
  -14.8482  -20.0638  -26.9782 C   0  0  0  0  0  0
  -15.2963  -17.9469  -25.7446 C   0  0  0  0  0  0
  -14.7731  -21.5470  -24.5904 C   0  0  0  0  0  0
  -14.5567  -21.4284  -27.0016 C   0  0  0  0  0  0
  -14.4641  -22.1751  -25.8192 C   0  0  0  0  0  0
  -15.9991  -17.3435  -24.6971 N   0  0  0  0  0  0
  -16.2234  -16.0275  -24.5820 C   0  0  0  0  0  0
  -14.8461  -17.2348  -26.7385 N   0  0  0  0  0  0
  -14.9884  -15.8437  -26.7385 C   0  0  0  0  0  0
  -15.6483  -15.1784  -25.6797 C   0  0  0  0  0  0
  -15.7283  -13.7680  -25.6757 C   0  0  0  0  0  0
  -15.1224  -13.0346  -26.7192 C   0  0  0  0  0  0
  -14.4515  -13.6966  -27.7626 C   0  0  0  0  0  0
  -14.4098  -15.1002  -27.7851 C   0  0  0  0  0  0
  -16.8482  -15.5676  -23.6351 O   0  0  0  0  0  0
  -14.0603  -23.6409  -25.9295 C   0  0  0  0  0  0
  -15.3778  -24.4498  -25.9387 C   0  0  0  0  0  0
  -13.0687  -23.9715  -24.7864 C   0  0  0  0  0  0
  -13.3494  -23.8342  -27.1581 O   0  0  0  0  0  0
  -15.1863  -11.6862  -26.7387 F   0  0  0  0  0  0
  -13.0695  -25.1543  -27.6134 C   0  0  0  0  0  0
  -12.1058  -25.0500  -28.7994 C   0  0  0  0  0  0
  -10.8482  -24.6154  -28.3382 O   0  0  0  0  0  0
  -15.2887  -19.7066  -23.6046 H   0  0  0  0  0  0
  -14.8481  -19.5210  -27.9126 H   0  0  0  0  0  0
  -14.7508  -22.1000  -23.6636 H   0  0  0  0  0  0
  -14.3592  -21.8986  -27.9387 H   0  0  0  0  0  0
  -16.4072  -17.9385  -23.9877 H   0  0  0  0  0  0
  -16.2372  -13.2480  -24.8757 H   0  0  0  0  0  0
  -13.9901  -13.1224  -28.5533 H   0  0  0  0  0  0
  -13.8992  -15.6056  -28.5917 H   0  0  0  0  0  0
  -15.9126  -24.3371  -24.9952 H   0  0  0  0  0  0
  -16.0408  -24.0953  -26.7288 H   0  0  0  0  0  0
  -15.2482  -25.5150  -26.1097 H   0  0  0  0  0  0
  -13.5672  -23.9855  -23.8201 H   0  0  0  0  0  0
  -12.5146  -24.9017  -24.8991 H   0  0  0  0  0  0
  -12.3021  -23.1994  -24.7387 H   0  0  0  0  0  0
  -13.9902  -25.6252  -27.9577 H   0  0  0  0  0  0
  -12.6476  -25.7951  -26.8414 H   0  0  0  0  0  0
  -12.4675  -24.3727  -29.5703 H   0  0  0  0  0  0
  -11.9839  -26.0295  -29.2626 H   0  0  0  0  0  0
  -10.6323  -25.1064  -27.5578 H   0  0  0  0  0  0
  1  2  2  0  0  0
  1  3  1  0  0  0
  1  4  1  0  0  0
  2  5  1  0  0  0
  2 26  1  0  0  0
  3  6  2  0  0  0
  3 27  1  0  0  0
  4  8  1  0  0  0
  4 10  2  0  0  0
  5  7  2  0  0  0
  5 28  1  0  0  0
  6  7  1  0  0  0
  6 29  1  0  0  0
  7 18  1  0  0  0
  8  9  1  0  0  0
  8 30  1  0  0  0
  9 12  1  0  0  0
  9 17  2  0  0  0
 10 11  1  0  0  0
 11 12  2  0  0  0
 11 16  1  0  0  0
 12 13  1  0  0  0
 13 14  2  0  0  0
 13 31  1  0  0  0
 14 15  1  0  0  0
 14 22  1  0  0  0
 15 16  2  0  0  0
 15 32  1  0  0  0
 16 33  1  0  0  0
 18 19  1  0  0  0
 18 20  1  0  0  0
 18 21  1  0  0  0
 19 34  1  0  0  0
 19 35  1  0  0  0
 19 36  1  0  0  0
 20 37  1  0  0  0
 20 38  1  0  0  0
 20 39  1  0  0  0
 21 23  1  0  0  0
 23 24  1  0  0  0
 23 40  1  0  0  0
 23 41  1  0  0  0
 24 25  1  0  0  0
 24 42  1  0  0  0
 24 43  1  0  0  0
 25 44  1  0  0  0
M  END
> <s_m_entry_id>
415

> <Name>
5n

> <IC50[nM]>
14

> <s_m_Source_Path>
/projects/mai/users/kmzp800_harry/pmx_colab/docking_jobs/tnks2

> <s_m_Source_File>
tnks2_lig.sdf

> <i_m_Source_File_Index>
1

> <s_m_job_name>
glide-dock_SP_tnks2_no_cons

> <r_i_docking_score>
-10.969189339357

> <r_i_glide_gscore>
-10.969189339357

> <r_i_glide_emodel>
-72.8034457022766

$$$$
5j
                    3D
 Schrodinger Suite 2021-4.
 37 39  0  0  1  0            999 V2000
  -14.3934  -14.9826  -27.7524 C   0  0  0  0  0  0
  -15.0163  -15.7350  -26.7386 C   0  0  0  0  0  0
  -14.4483  -13.5796  -27.7309 C   0  0  0  0  0  0
  -15.7496  -15.0865  -25.7209 C   0  0  0  0  0  0
  -14.8469  -17.1227  -26.7386 N   0  0  0  0  0  0
  -15.1729  -12.9264  -26.7190 C   0  0  0  0  0  0
  -15.8251  -13.6710  -25.7101 C   0  0  0  0  0  0
  -16.4139  -15.9717  -24.6999 C   0  0  0  0  0  0
  -16.0584  -17.2645  -24.7387 N   0  0  0  0  0  0
  -17.2372  -15.5727  -23.8888 O   0  0  0  0  0  0
  -15.3040  -17.8480  -25.7590 C   0  0  0  0  0  0
  -15.0633  -19.3127  -25.7754 C   0  0  0  0  0  0
  -14.9902  -20.0739  -24.5882 C   0  0  0  0  0  0
  -14.6122  -21.4324  -24.6435 C   0  0  0  0  0  0
  -14.3233  -22.0404  -25.8882 C   0  0  0  0  0  0
  -14.5024  -21.2924  -27.0616 C   0  0  0  0  0  0
  -14.8482  -19.9425  -27.0135 C   0  0  0  0  0  0
  -13.8455  -23.4822  -26.0181 C   0  0  0  0  0  0
  -13.0248  -23.6758  -27.1513 O   0  0  0  0  0  0
  -15.2481  -11.5748  -26.7385 F   0  0  0  0  0  0
  -16.4987  -13.0132  -24.7386 F   0  0  0  0  0  0
  -15.0773  -24.3727  -26.2295 C   0  0  0  0  0  0
  -12.9351  -23.9054  -24.8529 C   0  0  0  0  0  0
  -13.8349  -15.4829  -28.5302 H   0  0  0  0  0  0
  -13.9522  -13.0003  -28.4964 H   0  0  0  0  0  0
  -16.5067  -17.8751  -24.0668 H   0  0  0  0  0  0
  -15.1833  -19.6197  -23.6282 H   0  0  0  0  0  0
  -14.5246  -21.9868  -23.7215 H   0  0  0  0  0  0
  -14.3095  -21.7327  -28.0144 H   0  0  0  0  0  0
  -14.8615  -19.3891  -27.9407 H   0  0  0  0  0  0
  -12.7119  -24.5675  -27.1426 H   0  0  0  0  0  0
  -15.7577  -24.3046  -25.3801 H   0  0  0  0  0  0
  -14.8051  -25.4214  -26.3411 H   0  0  0  0  0  0
  -15.6344  -24.0808  -27.1206 H   0  0  0  0  0  0
  -13.4896  -23.9723  -23.9201 H   0  0  0  0  0  0
  -12.4484  -24.8687  -25.0174 H   0  0  0  0  0  0
  -12.1362  -23.1784  -24.7147 H   0  0  0  0  0  0
  1  2  2  0  0  0
  1  3  1  0  0  0
  1 24  1  0  0  0
  2  4  1  0  0  0
  2  5  1  0  0  0
  3  6  2  0  0  0
  3 25  1  0  0  0
  4  7  2  0  0  0
  4  8  1  0  0  0
  5 11  2  0  0  0
  6  7  1  0  0  0
  6 20  1  0  0  0
  7 21  1  0  0  0
  8  9  1  0  0  0
  8 10  2  0  0  0
  9 11  1  0  0  0
  9 26  1  0  0  0
 11 12  1  0  0  0
 12 13  2  0  0  0
 12 17  1  0  0  0
 13 14  1  0  0  0
 13 27  1  0  0  0
 14 15  2  0  0  0
 14 28  1  0  0  0
 15 16  1  0  0  0
 15 18  1  0  0  0
 16 17  2  0  0  0
 16 29  1  0  0  0
 17 30  1  0  0  0
 18 19  1  0  0  0
 18 22  1  0  0  0
 18 23  1  0  0  0
 19 31  1  0  0  0
 22 32  1  0  0  0
 22 33  1  0  0  0
 22 34  1  0  0  0
 23 35  1  0  0  0
 23 36  1  0  0  0
 23 37  1  0  0  0
M  END
> <s_m_entry_id>
416

> <Name>
5j

> <IC50[nM]>
7.5

> <s_m_Source_Path>
/projects/mai/users/kmzp800_harry/pmx_colab/docking_jobs/tnks2

> <s_m_Source_File>
tnks2_lig.sdf

> <i_m_Source_File_Index>
2

> <s_m_job_name>
glide-dock_SP_tnks2_no_cons

> <r_i_docking_score>
-10.919621762437

> <r_i_glide_gscore>
-10.919621762437

> <r_i_glide_emodel>
-67.8847151306759

$$$$
5f
                    3D
 Schrodinger Suite 2021-4.
 37 39  0  0  1  0            999 V2000
  -14.4482  -14.8308  -27.6552 C   0  0  0  0  0  0
  -15.0250  -15.6665  -26.6714 C   0  0  0  0  0  0
  -14.5297  -13.4305  -27.5386 C   0  0  0  0  0  0
  -15.6914  -15.0734  -25.5724 C   0  0  0  0  0  0
  -14.8482  -17.0623  -26.7386 N   0  0  0  0  0  0
  -15.2030  -12.8508  -26.4479 C   0  0  0  0  0  0
  -15.7945  -13.6695  -25.4668 C   0  0  0  0  0  0
  -16.2359  -15.9841  -24.5159 C   0  0  0  0  0  0
  -15.9901  -17.2870  -24.6994 N   0  0  0  0  0  0
  -16.8482  -15.5727  -23.5386 O   0  0  0  0  0  0
  -15.2628  -17.8266  -25.7666 C   0  0  0  0  0  0
  -14.9928  -19.2914  -25.7817 C   0  0  0  0  0  0
  -14.8482  -19.9826  -27.0001 C   0  0  0  0  0  0
  -14.5379  -21.3522  -27.0030 C   0  0  0  0  0  0
  -14.3253  -22.0492  -25.8005 C   0  0  0  0  0  0
  -14.5030  -21.3628  -24.5781 C   0  0  0  0  0  0
  -14.8470  -19.9989  -24.5695 C   0  0  0  0  0  0
  -14.0228  -23.5436  -25.8215 C   0  0  0  0  0  0
  -13.3313  -23.9355  -24.6523 O   0  0  0  0  0  0
  -13.0829  -24.0167  -26.9479 C   0  0  0  0  0  0
  -15.3720  -24.2736  -25.9386 C   0  0  0  0  0  0
  -13.7715  -15.3625  -28.6993 F   0  0  0  0  0  0
  -14.0667  -12.7985  -28.2831 H   0  0  0  0  0  0
  -15.2506  -11.7760  -26.3643 H   0  0  0  0  0  0
  -16.3016  -13.2177  -24.6249 H   0  0  0  0  0  0
  -16.3790  -17.9222  -24.0148 H   0  0  0  0  0  0
  -14.9238  -19.4634  -27.9428 H   0  0  0  0  0  0
  -14.4476  -21.8642  -27.9386 H   0  0  0  0  0  0
  -14.3903  -21.8786  -23.6353 H   0  0  0  0  0  0
  -14.9813  -19.5048  -23.6207 H   0  0  0  0  0  0
  -12.4780  -23.5271  -24.6599 H   0  0  0  0  0  0
  -13.4839  -23.8235  -27.9385 H   0  0  0  0  0  0
  -12.9332  -25.0959  -26.8899 H   0  0  0  0  0  0
  -12.0923  -23.5727  -26.8784 H   0  0  0  0  0  0
  -15.9363  -23.9260  -26.8046 H   0  0  0  0  0  0
  -15.2488  -25.3470  -26.0609 H   0  0  0  0  0  0
  -15.9886  -24.1074  -25.0550 H   0  0  0  0  0  0
  1  2  2  0  0  0
  1  3  1  0  0  0
  1 22  1  0  0  0
  2  4  1  0  0  0
  2  5  1  0  0  0
  3  6  2  0  0  0
  3 23  1  0  0  0
  4  7  2  0  0  0
  4  8  1  0  0  0
  5 11  2  0  0  0
  6  7  1  0  0  0
  6 24  1  0  0  0
  7 25  1  0  0  0
  8  9  1  0  0  0
  8 10  2  0  0  0
  9 11  1  0  0  0
  9 26  1  0  0  0
 11 12  1  0  0  0
 12 13  2  0  0  0
 12 17  1  0  0  0
 13 14  1  0  0  0
 13 27  1  0  0  0
 14 15  2  0  0  0
 14 28  1  0  0  0
 15 16  1  0  0  0
 15 18  1  0  0  0
 16 17  2  0  0  0
 16 29  1  0  0  0
 17 30  1  0  0  0
 18 19  1  0  0  0
 18 20  1  0  0  0
 18 21  1  0  0  0
 19 31  1  0  0  0
 20 32  1  0  0  0
 20 33  1  0  0  0
 20 34  1  0  0  0
 21 35  1  0  0  0
 21 36  1  0  0  0
 21 37  1  0  0  0
M  END
> <s_m_entry_id>
417

> <Name>
5f

> <IC50[nM]>
30

> <s_m_Source_Path>
/projects/mai/users/kmzp800_harry/pmx_colab/docking_jobs/tnks2

> <s_m_Source_File>
tnks2_lig.sdf

> <i_m_Source_File_Index>
3

> <s_m_job_name>
glide-dock_SP_tnks2_no_cons

> <r_i_docking_score>
-10.5652551845732

> <r_i_glide_gscore>
-10.5652551845732

> <r_i_glide_emodel>
-66.0579298006436

$$$$
8d
                    3D
 Schrodinger Suite 2021-4.
 46 49  0  0  1  0            999 V2000
  -14.4480  -14.9003  -27.6683 C   0  0  0  0  0  0
  -15.0094  -15.7145  -26.6578 C   0  0  0  0  0  0
  -14.4478  -13.5101  -27.5473 C   0  0  0  0  0  0
  -15.6480  -15.0925  -25.5563 C   0  0  0  0  0  0
  -14.8486  -17.1129  -26.7059 N   0  0  0  0  0  0
  -15.0005  -12.9046  -26.4260 C   0  0  0  0  0  0
  -15.6488  -13.6793  -25.4370 C   0  0  0  0  0  0
  -16.2354  -15.9914  -24.5091 C   0  0  0  0  0  0
  -16.0389  -17.3032  -24.6930 N   0  0  0  0  0  0
  -16.8479  -15.5718  -23.5387 O   0  0  0  0  0  0
  -15.3177  -17.8682  -25.7498 C   0  0  0  0  0  0
  -15.1437  -19.3508  -25.8068 C   0  0  0  0  0  0
  -14.8482  -19.9558  -27.0413 C   0  0  0  0  0  0
  -14.6967  -21.3424  -27.1297 C   0  0  0  0  0  0
  -14.8350  -22.1685  -26.0006 C   0  0  0  0  0  0
  -15.1227  -21.5691  -24.7555 C   0  0  0  0  0  0
  -15.2731  -20.1678  -24.6584 C   0  0  0  0  0  0
  -13.7908  -15.4631  -28.8900 C   0  0  0  0  0  0
  -14.8482  -11.5727  -26.3385 F   0  0  0  0  0  0
  -14.7113  -23.6806  -26.1576 C   0  0  0  0  0  0
  -15.8889  -24.2250  -26.9945 C   0  0  0  0  0  0
  -15.7413  -25.7218  -27.2947 C   0  0  0  0  0  0
  -14.4646  -25.9804  -27.9939 N   0  3  0  0  0  0
  -13.2837  -25.5763  -27.2016 C   0  0  0  0  0  0
  -13.3544  -24.0912  -26.7888 C   0  0  0  0  0  0
  -13.9767  -12.8916  -28.2985 H   0  0  0  0  0  0
  -16.0927  -13.1979  -24.5766 H   0  0  0  0  0  0
  -16.4811  -17.9232  -24.0259 H   0  0  0  0  0  0
  -14.7320  -19.3656  -27.9388 H   0  0  0  0  0  0
  -14.4604  -21.7559  -28.0861 H   0  0  0  0  0  0
  -15.2405  -22.1791  -23.8723 H   0  0  0  0  0  0
  -15.5046  -19.7359  -23.6958 H   0  0  0  0  0  0
  -14.2227  -16.4261  -29.1363 H   0  0  0  0  0  0
  -13.9631  -14.7997  -29.7392 H   0  0  0  0  0  0
  -12.7193  -15.5719  -28.7412 H   0  0  0  0  0  0
  -14.7726  -24.1230  -25.1632 H   0  0  0  0  0  0
  -16.8304  -24.0435  -26.4756 H   0  0  0  0  0  0
  -15.9576  -23.6867  -27.9393 H   0  0  0  0  0  0
  -15.7868  -26.3009  -26.3721 H   0  0  0  0  0  0
  -16.5667  -26.0616  -27.9212 H   0  0  0  0  0  0
  -14.3964  -26.9674  -28.2009 H   0  0  0  0  0  0
  -13.2069  -26.2303  -26.3391 H   0  0  0  0  0  0
  -12.3838  -25.7528  -27.7919 H   0  0  0  0  0  0
  -13.1578  -23.5024  -27.6819 H   0  0  0  0  0  0
  -12.5401  -23.8569  -26.1009 H   0  0  0  0  0  0
  -14.4614  -25.4687  -28.8646 H   0  0  0  0  0  0
  1  2  2  0  0  0
  1  3  1  0  0  0
  1 18  1  0  0  0
  2  4  1  0  0  0
  2  5  1  0  0  0
  3  6  2  0  0  0
  3 26  1  0  0  0
  4  7  2  0  0  0
  4  8  1  0  0  0
  5 11  2  0  0  0
  6  7  1  0  0  0
  6 19  1  0  0  0
  7 27  1  0  0  0
  8  9  1  0  0  0
  8 10  2  0  0  0
  9 11  1  0  0  0
  9 28  1  0  0  0
 11 12  1  0  0  0
 12 13  2  0  0  0
 12 17  1  0  0  0
 13 14  1  0  0  0
 13 29  1  0  0  0
 14 15  2  0  0  0
 14 30  1  0  0  0
 15 16  1  0  0  0
 15 20  1  0  0  0
 16 17  2  0  0  0
 16 31  1  0  0  0
 17 32  1  0  0  0
 18 33  1  0  0  0
 18 34  1  0  0  0
 18 35  1  0  0  0
 20 21  1  0  0  0
 20 25  1  0  0  0
 20 36  1  0  0  0
 21 22  1  0  0  0
 21 37  1  0  0  0
 21 38  1  0  0  0
 22 23  1  0  0  0
 22 39  1  0  0  0
 22 40  1  0  0  0
 23 24  1  0  0  0
 23 41  1  0  0  0
 23 46  1  0  0  0
 24 25  1  0  0  0
 24 42  1  0  0  0
 24 43  1  0  0  0
 25 44  1  0  0  0
 25 45  1  0  0  0
M  CHG  1  23   1
M  END
> <s_m_entry_id>
418

> <Name>
8d

> <IC50[nM]>
0.7

> <s_m_Source_Path>
/projects/mai/users/kmzp800_harry/pmx_colab/docking_jobs/tnks2

> <s_m_Source_File>
tnks2_lig.sdf

> <i_m_Source_File_Index>
4

> <s_m_job_name>
glide-dock_SP_tnks2_no_cons

> <r_i_docking_score>
-10.4228272781008

> <r_i_glide_gscore>
-10.4228272781008

> <r_i_glide_emodel>
-57.4458172119809

$$$$
5b
                    3D
 Schrodinger Suite 2021-4.
 37 39  0  0  1  0            999 V2000
  -14.3873  -15.0256  -27.7771 C   0  0  0  0  0  0
  -14.9635  -15.7851  -26.7386 C   0  0  0  0  0  0
  -14.4482  -13.6209  -27.7521 C   0  0  0  0  0  0
  -15.6511  -15.1366  -25.6883 C   0  0  0  0  0  0
  -14.7975  -17.1751  -26.7490 N   0  0  0  0  0  0
  -15.1468  -12.9745  -26.7169 C   0  0  0  0  0  0
  -15.7620  -13.7261  -25.6964 C   0  0  0  0  0  0
  -16.2194  -16.0067  -24.5998 C   0  0  0  0  0  0
  -15.9823  -17.3199  -24.7312 N   0  0  0  0  0  0
  -16.8482  -15.5727  -23.6428 O   0  0  0  0  0  0
  -15.2482  -17.9017  -25.7695 C   0  0  0  0  0  0
  -14.9942  -19.3631  -25.7721 C   0  0  0  0  0  0
  -14.8482  -20.0497  -26.9937 C   0  0  0  0  0  0
  -14.5232  -21.4124  -27.0001 C   0  0  0  0  0  0
  -14.3029  -22.1024  -25.7965 C   0  0  0  0  0  0
  -14.4875  -21.4234  -24.5707 C   0  0  0  0  0  0
  -14.8443  -20.0638  -24.5583 C   0  0  0  0  0  0
  -13.9928  -23.5889  -25.8221 C   0  0  0  0  0  0
  -13.2779  -23.9727  -24.6631 O   0  0  0  0  0  0
  -13.0626  -24.0533  -26.9577 C   0  0  0  0  0  0
  -15.3483  -24.3151  -25.9386 C   0  0  0  0  0  0
  -16.4478  -13.0726  -24.7366 F   0  0  0  0  0  0
  -13.8580  -15.5220  -28.5775 H   0  0  0  0  0  0
  -13.9800  -13.0382  -28.5327 H   0  0  0  0  0  0
  -15.2152  -11.8963  -26.7083 H   0  0  0  0  0  0
  -16.3880  -17.9271  -24.0311 H   0  0  0  0  0  0
  -14.9346  -19.5344  -27.9384 H   0  0  0  0  0  0
  -14.4326  -21.9207  -27.9386 H   0  0  0  0  0  0
  -14.3687  -21.9414  -23.6299 H   0  0  0  0  0  0
  -14.9795  -19.5675  -23.6105 H   0  0  0  0  0  0
  -12.4120  -23.5927  -24.7058 H   0  0  0  0  0  0
  -13.4951  -23.8878  -27.9386 H   0  0  0  0  0  0
  -12.8795  -25.1267  -26.8877 H   0  0  0  0  0  0
  -12.0873  -23.5727  -26.9184 H   0  0  0  0  0  0
  -15.9186  -23.9494  -26.7932 H   0  0  0  0  0  0
  -15.2482  -25.3885  -26.0805 H   0  0  0  0  0  0
  -15.9565  -24.1548  -25.0481 H   0  0  0  0  0  0
  1  2  2  0  0  0
  1  3  1  0  0  0
  1 23  1  0  0  0
  2  4  1  0  0  0
  2  5  1  0  0  0
  3  6  2  0  0  0
  3 24  1  0  0  0
  4  7  2  0  0  0
  4  8  1  0  0  0
  5 11  2  0  0  0
  6  7  1  0  0  0
  6 25  1  0  0  0
  7 22  1  0  0  0
  8  9  1  0  0  0
  8 10  2  0  0  0
  9 11  1  0  0  0
  9 26  1  0  0  0
 11 12  1  0  0  0
 12 13  2  0  0  0
 12 17  1  0  0  0
 13 14  1  0  0  0
 13 27  1  0  0  0
 14 15  2  0  0  0
 14 28  1  0  0  0
 15 16  1  0  0  0
 15 18  1  0  0  0
 16 17  2  0  0  0
 16 29  1  0  0  0
 17 30  1  0  0  0
 18 19  1  0  0  0
 18 20  1  0  0  0
 18 21  1  0  0  0
 19 31  1  0  0  0
 20 32  1  0  0  0
 20 33  1  0  0  0
 20 34  1  0  0  0
 21 35  1  0  0  0
 21 36  1  0  0  0
 21 37  1  0  0  0
M  END
> <s_m_entry_id>
419

> <Name>
5b

> <IC50[nM]>
21

> <s_m_Source_Path>
/projects/mai/users/kmzp800_harry/pmx_colab/docking_jobs/tnks2

> <s_m_Source_File>
tnks2_lig.sdf

> <i_m_Source_File_Index>
5

> <s_m_job_name>
glide-dock_SP_tnks2_no_cons

> <r_i_docking_score>
-10.4739071186072

> <r_i_glide_gscore>
-10.4739071186072

> <r_i_glide_emodel>
-62.857809628054

$$$$
3b
                    3D
 Schrodinger Suite 2021-4.
 39 41  0  0  1  0            999 V2000
  -14.4083  -15.0441  -27.7736 C   0  0  0  0  0  0
  -14.9901  -15.7890  -26.7314 C   0  0  0  0  0  0
  -14.4494  -13.6415  -27.7462 C   0  0  0  0  0  0
  -15.6499  -15.1345  -25.6660 C   0  0  0  0  0  0
  -14.8470  -17.1762  -26.7397 N   0  0  0  0  0  0
  -15.1339  -12.9858  -26.7078 C   0  0  0  0  0  0
  -15.7373  -13.7232  -25.6619 C   0  0  0  0  0  0
  -16.2172  -16.0011  -24.5720 C   0  0  0  0  0  0
  -15.9809  -17.3134  -24.6954 N   0  0  0  0  0  0
  -16.8487  -15.5670  -23.6184 O   0  0  0  0  0  0
  -15.2926  -17.9021  -25.7575 C   0  0  0  0  0  0
  -15.1020  -19.3704  -25.8088 C   0  0  0  0  0  0
  -15.1537  -20.1674  -24.6466 C   0  0  0  0  0  0
  -14.9174  -21.5515  -24.7364 C   0  0  0  0  0  0
  -14.6361  -22.1549  -25.9854 C   0  0  0  0  0  0
  -14.6339  -21.3491  -27.1377 C   0  0  0  0  0  0
  -14.8482  -19.9738  -27.0530 C   0  0  0  0  0  0
  -15.2093  -11.6383  -26.7387 F   0  0  0  0  0  0
  -14.3426  -23.6522  -26.0725 C   0  0  0  0  0  0
  -13.1897  -23.9727  -25.0951 C   0  0  0  0  0  0
  -13.9008  -24.1236  -27.4759 C   0  0  0  0  0  0
  -15.6488  -24.3918  -25.7364 C   0  0  0  0  0  0
  -13.8953  -15.5491  -28.5796 H   0  0  0  0  0  0
  -13.9874  -13.0620  -28.5328 H   0  0  0  0  0  0
  -16.2528  -13.2077  -24.8629 H   0  0  0  0  0  0
  -16.3827  -17.9173  -23.9918 H   0  0  0  0  0  0
  -15.3608  -19.7321  -23.6809 H   0  0  0  0  0  0
  -14.9474  -22.1463  -23.8366 H   0  0  0  0  0  0
  -14.4483  -21.7415  -28.1127 H   0  0  0  0  0  0
  -14.8337  -19.3969  -27.9664 H   0  0  0  0  0  0
  -12.7169  -24.9289  -25.3082 H   0  0  0  0  0  0
  -13.5090  -23.9714  -24.0529 H   0  0  0  0  0  0
  -12.3990  -23.2285  -25.1909 H   0  0  0  0  0  0
  -14.6906  -23.9730  -28.2123 H   0  0  0  0  0  0
  -13.0017  -23.6050  -27.8114 H   0  0  0  0  0  0
  -13.6733  -25.1898  -27.4784 H   0  0  0  0  0  0
  -16.4685  -24.0171  -26.3509 H   0  0  0  0  0  0
  -15.5823  -25.4605  -25.9387 H   0  0  0  0  0  0
  -15.9392  -24.2620  -24.6947 H   0  0  0  0  0  0
  1  2  2  0  0  0
  1  3  1  0  0  0
  1 23  1  0  0  0
  2  4  1  0  0  0
  2  5  1  0  0  0
  3  6  2  0  0  0
  3 24  1  0  0  0
  4  7  2  0  0  0
  4  8  1  0  0  0
  5 11  2  0  0  0
  6  7  1  0  0  0
  6 18  1  0  0  0
  7 25  1  0  0  0
  8  9  1  0  0  0
  8 10  2  0  0  0
  9 11  1  0  0  0
  9 26  1  0  0  0
 11 12  1  0  0  0
 12 13  2  0  0  0
 12 17  1  0  0  0
 13 14  1  0  0  0
 13 27  1  0  0  0
 14 15  2  0  0  0
 14 28  1  0  0  0
 15 16  1  0  0  0
 15 19  1  0  0  0
 16 17  2  0  0  0
 16 29  1  0  0  0
 17 30  1  0  0  0
 19 20  1  0  0  0
 19 21  1  0  0  0
 19 22  1  0  0  0
 20 31  1  0  0  0
 20 32  1  0  0  0
 20 33  1  0  0  0
 21 34  1  0  0  0
 21 35  1  0  0  0
 21 36  1  0  0  0
 22 37  1  0  0  0
 22 38  1  0  0  0
 22 39  1  0  0  0
M  END
> <s_m_entry_id>
420

> <Name>
3b

> <IC50[nM]>
3.6

> <s_m_Source_Path>
/projects/mai/users/kmzp800_harry/pmx_colab/docking_jobs/tnks2

> <s_m_Source_File>
tnks2_lig.sdf

> <i_m_Source_File_Index>
6

> <s_m_job_name>
glide-dock_SP_tnks2_no_cons

> <r_i_docking_score>
-10.6071296171401

> <r_i_glide_gscore>
-10.6071296171401

> <r_i_glide_emodel>
-58.442551697701

$$$$
1b
                    3D
 Schrodinger Suite 2021-4.
 31 33  0  0  1  0            999 V2000
  -15.0547  -19.8127  -25.4802 C   0  0  0  0  0  0
  -15.8663  -20.7133  -26.2021 C   0  0  0  0  0  0
  -13.9729  -20.3259  -24.7388 C   0  0  0  0  0  0
  -15.5591  -22.0815  -26.2728 C   0  0  0  0  0  0
  -13.6479  -21.6950  -24.8398 C   0  0  0  0  0  0
  -14.8476  -17.6291  -26.5186 N   0  0  0  0  0  0
  -14.4146  -22.5795  -25.6326 C   0  0  0  0  0  0
  -15.0450  -16.2323  -26.5355 C   0  0  0  0  0  0
  -15.7788  -15.5795  -25.5184 C   0  0  0  0  0  0
  -15.3175  -13.4099  -26.5271 C   0  0  0  0  0  0
  -14.5802  -14.0489  -27.5416 C   0  0  0  0  0  0
  -15.9273  -14.1759  -25.5167 C   0  0  0  0  0  0
  -14.4483  -15.4527  -27.5472 C   0  0  0  0  0  0
  -16.3765  -16.4299  -24.4484 C   0  0  0  0  0  0
  -16.0482  -17.7302  -24.5094 N   0  0  0  0  0  0
  -15.3059  -18.3398  -25.5266 C   0  0  0  0  0  0
  -17.1184  -15.9728  -23.5837 O   0  0  0  0  0  0
  -16.7241  -20.3729  -26.7388 H   0  0  0  0  0  0
  -13.3411  -19.6691  -24.1580 H   0  0  0  0  0  0
  -16.1766  -22.7424  -26.8627 H   0  0  0  0  0  0
  -12.7656  -22.0493  -24.3386 H   0  0  0  0  0  0
  -14.1106  -13.4598  -28.3158 H   0  0  0  0  0  0
  -16.4929  -13.6828  -24.7381 H   0  0  0  0  0  0
  -16.5257  -18.3308  -23.8444 H   0  0  0  0  0  0
  -13.8770  -15.9307  -28.3288 H   0  0  0  0  0  0
  -15.4139  -12.3338  -26.5237 H   0  0  0  0  0  0
  -14.1030  -23.9040  -25.8385 O   0  0  0  0  0  0
  -12.7752  -24.3159  -25.5477 C   0  0  0  0  0  0
  -12.6159  -25.3206  -25.9388 H   0  0  0  0  0  0
  -12.5850  -24.3402  -24.4739 H   0  0  0  0  0  0
  -12.0484  -23.6631  -26.0299 H   0  0  0  0  0  0
  1  2  2  0  0  0
  1  3  1  0  0  0
  1 16  1  0  0  0
  2  4  1  0  0  0
  2 18  1  0  0  0
  3  5  2  0  0  0
  3 19  1  0  0  0
  4  7  2  0  0  0
  4 20  1  0  0  0
  5  7  1  0  0  0
  5 21  1  0  0  0
  6  8  1  0  0  0
  6 16  2  0  0  0
  7 27  1  0  0  0
  8  9  2  0  0  0
  8 13  1  0  0  0
  9 12  1  0  0  0
  9 14  1  0  0  0
 10 11  1  0  0  0
 10 12  2  0  0  0
 10 26  1  0  0  0
 11 13  2  0  0  0
 11 22  1  0  0  0
 12 23  1  0  0  0
 13 25  1  0  0  0
 14 15  1  0  0  0
 14 17  2  0  0  0
 15 16  1  0  0  0
 15 24  1  0  0  0
 27 28  1  0  0  0
 28 29  1  0  0  0
 28 30  1  0  0  0
 28 31  1  0  0  0
M  END
> <s_m_entry_id>
421

> <Name>
1b

> <IC50[nM]>
52

> <s_m_Source_Path>
/projects/mai/users/kmzp800_harry/pmx_colab/docking_jobs/tnks2

> <s_m_Source_File>
tnks2_lig.sdf

> <i_m_Source_File_Index>
7

> <s_m_job_name>
glide-dock_SP_tnks2_no_cons

> <r_i_docking_score>
-10.5506729918932

> <r_i_glide_gscore>
-10.5506729918932

> <r_i_glide_emodel>
-65.4367934358869

$$$$
3a
                    3D
 Schrodinger Suite 2021-4.
 39 41  0  0  1  0            999 V2000
  -14.8482  -17.0274  -26.7386 N   0  0  0  0  0  0
  -15.3217  -17.7949  -25.7957 C   0  0  0  0  0  0
  -16.0482  -17.2551  -24.7331 N   0  0  0  0  0  0
  -16.2461  -15.9522  -24.5239 C   0  0  0  0  0  0
  -16.8483  -15.5553  -23.5386 O   0  0  0  0  0  0
  -15.1388  -19.2670  -25.8465 C   0  0  0  0  0  0
  -15.2481  -20.0493  -24.6771 C   0  0  0  0  0  0
  -15.0257  -21.4357  -24.7333 C   0  0  0  0  0  0
  -14.6854  -22.0624  -25.9528 C   0  0  0  0  0  0
  -14.6431  -21.2760  -27.1214 C   0  0  0  0  0  0
  -14.8482  -19.8937  -27.0700 C   0  0  0  0  0  0
  -14.3403  -23.5529  -25.9762 C   0  0  0  0  0  0
  -15.0163  -15.6344  -26.6648 C   0  0  0  0  0  0
  -15.6773  -15.0383  -25.5652 C   0  0  0  0  0  0
  -15.7648  -13.6337  -25.4581 C   0  0  0  0  0  0
  -15.1667  -12.8224  -26.4425 C   0  0  0  0  0  0
  -14.5071  -13.4095  -27.5386 C   0  0  0  0  0  0
  -14.4482  -14.8114  -27.6583 C   0  0  0  0  0  0
  -13.2557  -23.8021  -24.9037 C   0  0  0  0  0  0
  -13.7641  -24.0351  -27.3226 C   0  0  0  0  0  0
  -15.6374  -24.3487  -25.7247 C   0  0  0  0  0  0
  -16.4794  -17.8897  -24.0732 H   0  0  0  0  0  0
  -15.4880  -19.6032  -23.7232 H   0  0  0  0  0  0
  -15.0967  -22.0096  -23.8218 H   0  0  0  0  0  0
  -14.4107  -21.6917  -28.0775 H   0  0  0  0  0  0
  -14.7673  -19.3209  -27.9824 H   0  0  0  0  0  0
  -16.2689  -13.1775  -24.6171 H   0  0  0  0  0  0
  -15.2075  -11.7469  -26.3627 H   0  0  0  0  0  0
  -14.0483  -12.7809  -28.2888 H   0  0  0  0  0  0
  -13.9324  -15.2557  -28.4971 H   0  0  0  0  0  0
  -12.7840  -24.7727  -25.0048 H   0  0  0  0  0  0
  -13.6479  -23.7296  -23.8906 H   0  0  0  0  0  0
  -12.4483  -23.0739  -24.9934 H   0  0  0  0  0  0
  -14.5113  -23.9727  -28.1120 H   0  0  0  0  0  0
  -12.8822  -23.4638  -27.6153 H   0  0  0  0  0  0
  -13.4626  -25.0819  -27.2693 H   0  0  0  0  0  0
  -16.4350  -24.0024  -26.3835 H   0  0  0  0  0  0
  -15.5168  -25.4094  -25.9386 H   0  0  0  0  0  0
  -15.9918  -24.2408  -24.6999 H   0  0  0  0  0  0
  1  2  2  0  0  0
  1 13  1  0  0  0
  2  3  1  0  0  0
  2  6  1  0  0  0
  3  4  1  0  0  0
  3 22  1  0  0  0
  4  5  2  0  0  0
  4 14  1  0  0  0
  6  7  2  0  0  0
  6 11  1  0  0  0
  7  8  1  0  0  0
  7 23  1  0  0  0
  8  9  2  0  0  0
  8 24  1  0  0  0
  9 10  1  0  0  0
  9 12  1  0  0  0
 10 11  2  0  0  0
 10 25  1  0  0  0
 11 26  1  0  0  0
 12 19  1  0  0  0
 12 20  1  0  0  0
 12 21  1  0  0  0
 13 14  2  0  0  0
 13 18  1  0  0  0
 14 15  1  0  0  0
 15 16  2  0  0  0
 15 27  1  0  0  0
 16 17  1  0  0  0
 16 28  1  0  0  0
 17 18  2  0  0  0
 17 29  1  0  0  0
 18 30  1  0  0  0
 19 31  1  0  0  0
 19 32  1  0  0  0
 19 33  1  0  0  0
 20 34  1  0  0  0
 20 35  1  0  0  0
 20 36  1  0  0  0
 21 37  1  0  0  0
 21 38  1  0  0  0
 21 39  1  0  0  0
M  END
> <s_m_entry_id>
422

> <Name>
3a

> <IC50[nM]>
8.7

> <s_m_Source_Path>
/projects/mai/users/kmzp800_harry/pmx_colab/docking_jobs/tnks2

> <s_m_Source_File>
tnks2_lig.sdf

> <i_m_Source_File_Index>
8

> <s_m_job_name>
glide-dock_SP_tnks2_no_cons

> <r_i_docking_score>
-10.7172468575091

> <r_i_glide_gscore>
-10.7172468575091

> <r_i_glide_emodel>
-64.5786888755404

$$$$
1a
                    3D
 Schrodinger Suite 2021-4.
 27 29  0  0  1  0            999 V2000
  -15.0424  -19.7651  -25.6931 C   0  0  0  0  0  0
  -14.8490  -20.5410  -26.8570 C   0  0  0  0  0  0
  -15.0491  -20.4063  -24.4359 C   0  0  0  0  0  0
  -14.6561  -21.9343  -26.7503 C   0  0  0  0  0  0
  -14.8481  -21.7944  -24.3338 C   0  0  0  0  0  0
  -14.7357  -17.5670  -26.7217 N   0  0  0  0  0  0
  -14.6504  -22.5618  -25.4926 C   0  0  0  0  0  0
  -14.9383  -16.1702  -26.7385 C   0  0  0  0  0  0
  -15.7337  -15.5304  -25.7560 C   0  0  0  0  0  0
  -15.2426  -13.3513  -26.7334 C   0  0  0  0  0  0
  -14.4535  -13.9776  -27.7195 C   0  0  0  0  0  0
  -15.8920  -14.1274  -25.7547 C   0  0  0  0  0  0
  -14.3176  -15.3807  -27.7280 C   0  0  0  0  0  0
  -16.4051  -16.3967  -24.7387 C   0  0  0  0  0  0
  -16.0482  -17.6862  -24.7750 N   0  0  0  0  0  0
  -15.2480  -18.2849  -25.7591 C   0  0  0  0  0  0
  -17.2335  -15.9721  -23.9386 O   0  0  0  0  0  0
  -14.8418  -20.0742  -27.8318 H   0  0  0  0  0  0
  -15.2062  -19.8351  -23.5384 H   0  0  0  0  0  0
  -14.5080  -22.5290  -27.6356 H   0  0  0  0  0  0
  -14.8452  -22.2677  -23.3640 H   0  0  0  0  0  0
  -13.9588  -13.3806  -28.4721 H   0  0  0  0  0  0
  -16.5011  -13.6446  -25.0031 H   0  0  0  0  0  0
  -16.5372  -18.2874  -24.1202 H   0  0  0  0  0  0
  -13.7105  -15.8508  -28.4874 H   0  0  0  0  0  0
  -15.3485  -12.2760  -26.7304 H   0  0  0  0  0  0
  -14.4973  -23.6291  -25.4163 H   0  0  0  0  0  0
  1  2  2  0  0  0
  1  3  1  0  0  0
  1 16  1  0  0  0
  2  4  1  0  0  0
  2 18  1  0  0  0
  3  5  2  0  0  0
  3 19  1  0  0  0
  4  7  2  0  0  0
  4 20  1  0  0  0
  5  7  1  0  0  0
  5 21  1  0  0  0
  6  8  1  0  0  0
  6 16  2  0  0  0
  7 27  1  0  0  0
  8  9  2  0  0  0
  8 13  1  0  0  0
  9 12  1  0  0  0
  9 14  1  0  0  0
 10 11  1  0  0  0
 10 12  2  0  0  0
 10 26  1  0  0  0
 11 13  2  0  0  0
 11 22  1  0  0  0
 12 23  1  0  0  0
 13 25  1  0  0  0
 14 15  1  0  0  0
 14 17  2  0  0  0
 15 16  1  0  0  0
 15 24  1  0  0  0
M  END
> <s_m_entry_id>
423

> <Name>
1a

> <IC50[nM]>
540

> <s_m_Source_Path>
/projects/mai/users/kmzp800_harry/pmx_colab/docking_jobs/tnks2

> <s_m_Source_File>
tnks2_lig.sdf

> <i_m_Source_File_Index>
9

> <s_m_job_name>
glide-dock_SP_tnks2_no_cons

> <r_i_docking_score>
-9.59383876576789

> <r_i_glide_gscore>
-9.59383876576789

> <r_i_glide_emodel>
-65.0058068505778

$$$$
5o
                    3D
 Schrodinger Suite 2021-4.
 47 49  0  0  1  0            999 V2000
  -15.0636  -19.0935  -25.9357 C   0  0  0  0  0  0
  -14.8482  -19.7893  -27.1386 C   0  0  0  0  0  0
  -15.0992  -19.8167  -24.7238 C   0  0  0  0  0  0
  -14.6206  -21.1727  -27.1252 C   0  0  0  0  0  0
  -14.8482  -21.2007  -24.7116 C   0  0  0  0  0  0
  -14.7759  -16.8703  -26.9019 N   0  0  0  0  0  0
  -14.5524  -21.8855  -25.9130 C   0  0  0  0  0  0
  -14.1650  -23.3644  -25.9336 C   0  0  0  0  0  0
  -14.9279  -15.4681  -26.8645 C   0  0  0  0  0  0
  -15.6482  -14.8540  -25.8066 C   0  0  0  0  0  0
  -15.1626  -12.6595  -26.7386 C   0  0  0  0  0  0
  -14.4482  -13.2496  -27.7763 C   0  0  0  0  0  0
  -15.7730  -13.4486  -25.7450 C   0  0  0  0  0  0
  -14.3315  -14.6413  -27.8560 C   0  0  0  0  0  0
  -16.2178  -15.7403  -24.7413 C   0  0  0  0  0  0
  -15.9790  -17.0465  -24.8912 N   0  0  0  0  0  0
  -15.2486  -17.6150  -25.9386 C   0  0  0  0  0  0
  -16.8482  -15.3114  -23.7852 O   0  0  0  0  0  0
  -15.4674  -24.1876  -25.9193 C   0  0  0  0  0  0
  -13.4209  -23.6252  -27.1358 O   0  0  0  0  0  0
  -13.2482  -23.6694  -24.7236 C   0  0  0  0  0  0
  -13.5134  -15.1727  -29.0066 C   0  0  0  0  0  0
  -15.2482  -11.3194  -26.7386 F   0  0  0  0  0  0
  -13.0150  -24.9567  -27.4465 C   0  0  0  0  0  0
  -12.1020  -24.9247  -28.6799 C   0  0  0  0  0  0
  -10.8488  -24.3727  -28.3386 O   0  0  0  0  0  0
  -14.8325  -19.2653  -28.0827 H   0  0  0  0  0  0
  -15.2945  -19.3210  -23.7853 H   0  0  0  0  0  0
  -14.4397  -21.6614  -28.0612 H   0  0  0  0  0  0
  -14.8624  -21.7126  -23.7622 H   0  0  0  0  0  0
  -13.9862  -12.6092  -28.5152 H   0  0  0  0  0  0
  -16.3177  -12.9761  -24.9394 H   0  0  0  0  0  0
  -16.3800  -17.6635  -24.1987 H   0  0  0  0  0  0
  -16.0476  -23.9835  -25.0195 H   0  0  0  0  0  0
  -16.0941  -23.9443  -26.7778 H   0  0  0  0  0  0
  -15.2893  -25.2575  -25.9421 H   0  0  0  0  0  0
  -13.7635  -23.5470  -23.7730 H   0  0  0  0  0  0
  -12.8477  -24.6781  -24.7046 H   0  0  0  0  0  0
  -12.3950  -22.9934  -24.7276 H   0  0  0  0  0  0
  -13.3289  -14.4096  -29.7634 H   0  0  0  0  0  0
  -12.5545  -15.5726  -28.6938 H   0  0  0  0  0  0
  -14.0482  -15.9727  -29.4795 H   0  0  0  0  0  0
  -13.8930  -25.5580  -27.6809 H   0  0  0  0  0  0
  -12.4935  -25.4516  -26.6298 H   0  0  0  0  0  0
  -12.5418  -24.3727  -29.5075 H   0  0  0  0  0  0
  -11.9344  -25.9430  -29.0320 H   0  0  0  0  0  0
  -10.6208  -24.6825  -27.4713 H   0  0  0  0  0  0
  1  2  2  0  0  0
  1  3  1  0  0  0
  1 17  1  0  0  0
  2  4  1  0  0  0
  2 27  1  0  0  0
  3  5  2  0  0  0
  3 28  1  0  0  0
  4  7  2  0  0  0
  4 29  1  0  0  0
  5  7  1  0  0  0
  5 30  1  0  0  0
  6  9  1  0  0  0
  6 17  2  0  0  0
  7  8  1  0  0  0
  8 19  1  0  0  0
  8 20  1  0  0  0
  8 21  1  0  0  0
  9 10  2  0  0  0
  9 14  1  0  0  0
 10 13  1  0  0  0
 10 15  1  0  0  0
 11 12  1  0  0  0
 11 13  2  0  0  0
 11 23  1  0  0  0
 12 14  2  0  0  0
 12 31  1  0  0  0
 13 32  1  0  0  0
 14 22  1  0  0  0
 15 16  1  0  0  0
 15 18  2  0  0  0
 16 17  1  0  0  0
 16 33  1  0  0  0
 19 34  1  0  0  0
 19 35  1  0  0  0
 19 36  1  0  0  0
 20 24  1  0  0  0
 21 37  1  0  0  0
 21 38  1  0  0  0
 21 39  1  0  0  0
 22 40  1  0  0  0
 22 41  1  0  0  0
 22 42  1  0  0  0
 24 25  1  0  0  0
 24 43  1  0  0  0
 24 44  1  0  0  0
 25 26  1  0  0  0
 25 45  1  0  0  0
 25 46  1  0  0  0
 26 47  1  0  0  0
M  END
> <s_m_entry_id>
424

> <Name>
5o

> <IC50[nM]>
1.5

> <s_m_Source_Path>
/projects/mai/users/kmzp800_harry/pmx_colab/docking_jobs/tnks2

> <s_m_Source_File>
tnks2_lig.sdf

> <i_m_Source_File_Index>
10

> <s_m_job_name>
glide-dock_SP_tnks2_no_cons

> <r_i_docking_score>
-9.81253959603751

> <r_i_glide_gscore>
-9.81253959603751

> <r_i_glide_emodel>
-58.4885705893742

$$$$
5k
                    3D
 Schrodinger Suite 2021-4.
 37 39  0  0  1  0            999 V2000
  -14.3635  -14.9884  -27.7557 C   0  0  0  0  0  0
  -14.9574  -15.7640  -26.7386 C   0  0  0  0  0  0
  -14.4482  -13.5905  -27.7310 C   0  0  0  0  0  0
  -15.6504  -15.1193  -25.6882 C   0  0  0  0  0  0
  -14.7942  -17.1573  -26.7497 N   0  0  0  0  0  0
  -15.1589  -12.9526  -26.7058 C   0  0  0  0  0  0
  -15.7650  -13.7086  -25.6766 C   0  0  0  0  0  0
  -16.2198  -15.9905  -24.6047 C   0  0  0  0  0  0
  -15.9848  -17.3038  -24.7360 N   0  0  0  0  0  0
  -16.8482  -15.5488  -23.6521 O   0  0  0  0  0  0
  -15.2482  -17.8856  -25.7727 C   0  0  0  0  0  0
  -14.9941  -19.3487  -25.7738 C   0  0  0  0  0  0
  -14.8445  -20.0499  -24.5598 C   0  0  0  0  0  0
  -14.4881  -21.4104  -24.5709 C   0  0  0  0  0  0
  -14.3044  -22.0916  -25.7957 C   0  0  0  0  0  0
  -14.5248  -21.4010  -26.9995 C   0  0  0  0  0  0
  -14.8482  -20.0374  -26.9940 C   0  0  0  0  0  0
  -13.9968  -23.5802  -25.8216 C   0  0  0  0  0  0
  -13.2866  -23.9727  -24.6623 O   0  0  0  0  0  0
  -13.6482  -15.5727  -28.7386 F   0  0  0  0  0  0
  -15.2482  -11.6061  -26.7386 F   0  0  0  0  0  0
  -13.0657  -24.0456  -26.9564 C   0  0  0  0  0  0
  -15.3518  -24.3056  -25.9386 C   0  0  0  0  0  0
  -13.9764  -13.0019  -28.5045 H   0  0  0  0  0  0
  -16.3010  -13.2069  -24.8826 H   0  0  0  0  0  0
  -16.3917  -17.9113  -24.0368 H   0  0  0  0  0  0
  -14.9797  -19.5529  -23.6126 H   0  0  0  0  0  0
  -14.3694  -21.9280  -23.6298 H   0  0  0  0  0  0
  -14.4345  -21.9091  -27.9386 H   0  0  0  0  0  0
  -14.9325  -19.5218  -27.9386 H   0  0  0  0  0  0
  -12.4191  -23.5957  -24.7005 H   0  0  0  0  0  0
  -13.4926  -23.8731  -27.9386 H   0  0  0  0  0  0
  -12.8899  -25.1205  -26.8904 H   0  0  0  0  0  0
  -12.0870  -23.5727  -26.9112 H   0  0  0  0  0  0
  -15.9211  -23.9418  -26.7946 H   0  0  0  0  0  0
  -15.2482  -25.3790  -26.0782 H   0  0  0  0  0  0
  -15.9610  -24.1448  -25.0489 H   0  0  0  0  0  0
  1  2  2  0  0  0
  1  3  1  0  0  0
  1 20  1  0  0  0
  2  4  1  0  0  0
  2  5  1  0  0  0
  3  6  2  0  0  0
  3 24  1  0  0  0
  4  7  2  0  0  0
  4  8  1  0  0  0
  5 11  2  0  0  0
  6  7  1  0  0  0
  6 21  1  0  0  0
  7 25  1  0  0  0
  8  9  1  0  0  0
  8 10  2  0  0  0
  9 11  1  0  0  0
  9 26  1  0  0  0
 11 12  1  0  0  0
 12 13  2  0  0  0
 12 17  1  0  0  0
 13 14  1  0  0  0
 13 27  1  0  0  0
 14 15  2  0  0  0
 14 28  1  0  0  0
 15 16  1  0  0  0
 15 18  1  0  0  0
 16 17  2  0  0  0
 16 29  1  0  0  0
 17 30  1  0  0  0
 18 19  1  0  0  0
 18 22  1  0  0  0
 18 23  1  0  0  0
 19 31  1  0  0  0
 22 32  1  0  0  0
 22 33  1  0  0  0
 22 34  1  0  0  0
 23 35  1  0  0  0
 23 36  1  0  0  0
 23 37  1  0  0  0
M  END
> <s_m_entry_id>
425

> <Name>
5k

> <IC50[nM]>
9.2

> <s_m_Source_Path>
/projects/mai/users/kmzp800_harry/pmx_colab/docking_jobs/tnks2

> <s_m_Source_File>
tnks2_lig.sdf

> <i_m_Source_File_Index>
11

> <s_m_job_name>
glide-dock_SP_tnks2_no_cons

> <r_i_docking_score>
-10.566390403096

> <r_i_glide_gscore>
-10.566390403096

> <r_i_glide_emodel>
-62.2307212403609

$$$$
8f
                    3D
 Schrodinger Suite 2021-4.
 49 52  0  0  1  0            999 V2000
  -14.4482  -14.8996  -27.6757 C   0  0  0  0  0  0
  -15.0106  -15.7135  -26.6641 C   0  0  0  0  0  0
  -14.4482  -13.5089  -27.5549 C   0  0  0  0  0  0
  -15.6482  -15.0920  -25.5608 C   0  0  0  0  0  0
  -14.8482  -17.1118  -26.7096 N   0  0  0  0  0  0
  -15.0011  -12.9043  -26.4319 C   0  0  0  0  0  0
  -15.6482  -13.6792  -25.4423 C   0  0  0  0  0  0
  -16.2326  -15.9903  -24.5097 C   0  0  0  0  0  0
  -16.0295  -17.3016  -24.6909 N   0  0  0  0  0  0
  -16.8482  -15.5727  -23.5387 O   0  0  0  0  0  0
  -15.3103  -17.8663  -25.7493 C   0  0  0  0  0  0
  -15.1319  -19.3484  -25.8035 C   0  0  0  0  0  0
  -15.2491  -20.1637  -24.6520 C   0  0  0  0  0  0
  -15.1016  -21.5657  -24.7487 C   0  0  0  0  0  0
  -14.8311  -22.1669  -25.9967 C   0  0  0  0  0  0
  -14.7027  -21.3424  -27.1280 C   0  0  0  0  0  0
  -14.8482  -19.9553  -27.0397 C   0  0  0  0  0  0
  -13.7692  -15.4628  -28.8890 C   0  0  0  0  0  0
  -14.8482  -11.5727  -26.3386 F   0  0  0  0  0  0
  -14.7157  -23.6793  -26.1561 C   0  0  1  0  0  0
  -15.8961  -24.2168  -26.9904 C   0  0  0  0  0  0
  -15.7596  -25.7154  -27.2838 C   0  0  0  0  0  0
  -14.4899  -25.9917  -27.9991 N   0  3  1  0  0  0
  -13.3048  -25.5821  -27.2058 C   0  0  0  0  0  0
  -13.3673  -24.0960  -26.7970 C   0  0  0  0  0  0
  -14.3981  -27.3942  -28.4626 C   0  0  0  0  0  0
  -13.9740  -12.8903  -28.3042 H   0  0  0  0  0  0
  -16.0897  -13.1979  -24.5808 H   0  0  0  0  0  0
  -16.4679  -17.9220  -24.0218 H   0  0  0  0  0  0
  -15.4705  -19.7299  -23.6879 H   0  0  0  0  0  0
  -15.2108  -22.1747  -23.8637 H   0  0  0  0  0  0
  -14.4814  -21.7592  -28.0864 H   0  0  0  0  0  0
  -14.7414  -19.3665  -27.9393 H   0  0  0  0  0  0
  -14.2000  -16.4246  -29.1386 H   0  0  0  0  0  0
  -13.9125  -14.7988  -29.7425 H   0  0  0  0  0  0
  -12.6988  -15.5727  -28.7384 H   0  0  0  0  0  0
  -14.7745  -24.1232  -25.1622 H   0  0  0  0  0  0
  -16.8358  -24.0265  -26.4712 H   0  0  0  0  0  0
  -15.9616  -23.6828  -27.9384 H   0  0  0  0  0  0
  -15.8057  -26.2880  -26.3570 H   0  0  0  0  0  0
  -16.6033  -26.0397  -27.8948 H   0  0  0  0  0  0
  -13.2197  -26.2293  -26.3386 H   0  0  0  0  0  0
  -12.4006  -25.7505  -27.7927 H   0  0  0  0  0  0
  -13.1755  -23.5107  -27.6934 H   0  0  0  0  0  0
  -12.5467  -23.8629  -26.1161 H   0  0  0  0  0  0
  -14.3908  -28.0872  -27.6200 H   0  0  0  0  0  0
  -15.2435  -27.6466  -29.1039 H   0  0  0  0  0  0
  -13.4868  -27.5518  -29.0408 H   0  0  0  0  0  0
  -14.4946  -25.4169  -28.8299 H   0  0  0  0  0  0
  1  2  2  0  0  0
  1  3  1  0  0  0
  1 18  1  0  0  0
  2  4  1  0  0  0
  2  5  1  0  0  0
  3  6  2  0  0  0
  3 27  1  0  0  0
  4  7  2  0  0  0
  4  8  1  0  0  0
  5 11  2  0  0  0
  6  7  1  0  0  0
  6 19  1  0  0  0
  7 28  1  0  0  0
  8  9  1  0  0  0
  8 10  2  0  0  0
  9 11  1  0  0  0
  9 29  1  0  0  0
 11 12  1  0  0  0
 12 13  2  0  0  0
 12 17  1  0  0  0
 13 14  1  0  0  0
 13 30  1  0  0  0
 14 15  2  0  0  0
 14 31  1  0  0  0
 15 16  1  0  0  0
 15 20  1  0  0  0
 16 17  2  0  0  0
 16 32  1  0  0  0
 17 33  1  0  0  0
 18 34  1  0  0  0
 18 35  1  0  0  0
 18 36  1  0  0  0
 20 21  1  0  0  0
 20 25  1  0  0  0
 20 37  1  0  0  0
 21 22  1  0  0  0
 21 38  1  0  0  0
 21 39  1  0  0  0
 22 23  1  0  0  0
 22 40  1  0  0  0
 22 41  1  0  0  0
 23 24  1  0  0  0
 23 26  1  0  0  0
 23 49  1  0  0  0
 24 25  1  0  0  0
 24 42  1  0  0  0
 24 43  1  0  0  0
 25 44  1  0  0  0
 25 45  1  0  0  0
 26 46  1  0  0  0
 26 47  1  0  0  0
 26 48  1  0  0  0
M  CHG  1  23   1
M  END
> <s_m_entry_id>
426

> <Name>
8f

> <IC50[nM]>
2.2

> <s_m_Source_Path>
/projects/mai/users/kmzp800_harry/pmx_colab/docking_jobs/tnks2

> <s_m_Source_File>
tnks2_lig.sdf

> <i_m_Source_File_Index>
12

> <s_m_job_name>
glide-dock_SP_tnks2_no_cons

> <r_i_docking_score>
-10.5905601340054

> <r_i_glide_gscore>
-10.5905601340054

> <r_i_glide_emodel>
-58.7460602172554

$$$$
5g
                    3D
 Schrodinger Suite 2021-4.
 37 39  0  0  1  0            999 V2000
  -14.6396  -14.6454  -27.4639 C   0  0  0  0  0  0
  -15.1851  -15.5506  -26.5270 C   0  0  0  0  0  0
  -14.8482  -13.2682  -27.3552 C   0  0  0  0  0  0
  -15.9528  -15.0310  -25.4630 C   0  0  0  0  0  0
  -14.9013  -16.9297  -26.6208 N   0  0  0  0  0  0
  -15.6480  -12.7727  -26.3276 C   0  0  0  0  0  0
  -16.2032  -13.6439  -25.3706 C   0  0  0  0  0  0
  -16.4604  -16.0024  -24.4486 C   0  0  0  0  0  0
  -16.0482  -17.2650  -24.6019 N   0  0  0  0  0  0
  -17.2067  -15.6767  -23.5386 O   0  0  0  0  0  0
  -15.3181  -17.7459  -25.6909 C   0  0  0  0  0  0
  -15.0735  -19.2125  -25.7876 C   0  0  0  0  0  0
  -14.8482  -19.8064  -27.0427 C   0  0  0  0  0  0
  -14.5477  -21.1727  -27.1386 C   0  0  0  0  0  0
  -14.4329  -21.9693  -25.9829 C   0  0  0  0  0  0
  -14.7397  -21.3918  -24.7291 C   0  0  0  0  0  0
  -15.0583  -20.0241  -24.6321 C   0  0  0  0  0  0
  -13.9487  -23.4122  -26.1060 C   0  0  0  0  0  0
  -13.0910  -23.5899  -27.2130 O   0  0  0  0  0  0
  -15.1456  -24.3484  -26.3386 C   0  0  0  0  0  0
  -13.0736  -23.8176  -24.9079 C   0  0  0  0  0  0
  -13.6482  -15.1727  -28.7386 Cl  0  0  0  0  0  0
  -14.4169  -12.5888  -28.0773 H   0  0  0  0  0  0
  -15.8402  -11.7138  -26.3386 H   0  0  0  0  0  0
  -16.8151  -13.2452  -24.5749 H   0  0  0  0  0  0
  -16.4125  -17.9363  -23.9386 H   0  0  0  0  0  0
  -14.8482  -19.2110  -27.9438 H   0  0  0  0  0  0
  -14.3315  -21.5727  -28.1119 H   0  0  0  0  0  0
  -14.6996  -21.9752  -23.8222 H   0  0  0  0  0  0
  -15.2584  -19.6081  -23.6562 H   0  0  0  0  0  0
  -12.7658  -24.4771  -27.1980 H   0  0  0  0  0  0
  -15.8376  -24.3152  -25.4964 H   0  0  0  0  0  0
  -14.8324  -25.3845  -26.4649 H   0  0  0  0  0  0
  -15.7025  -24.0635  -27.2322 H   0  0  0  0  0  0
  -13.6482  -23.9066  -23.9865 H   0  0  0  0  0  0
  -12.5740  -24.7727  -25.0662 H   0  0  0  0  0  0
  -12.2897  -23.0810  -24.7386 H   0  0  0  0  0  0
  1  2  2  0  0  0
  1  3  1  0  0  0
  1 22  1  0  0  0
  2  4  1  0  0  0
  2  5  1  0  0  0
  3  6  2  0  0  0
  3 23  1  0  0  0
  4  7  2  0  0  0
  4  8  1  0  0  0
  5 11  2  0  0  0
  6  7  1  0  0  0
  6 24  1  0  0  0
  7 25  1  0  0  0
  8  9  1  0  0  0
  8 10  2  0  0  0
  9 11  1  0  0  0
  9 26  1  0  0  0
 11 12  1  0  0  0
 12 13  2  0  0  0
 12 17  1  0  0  0
 13 14  1  0  0  0
 13 27  1  0  0  0
 14 15  2  0  0  0
 14 28  1  0  0  0
 15 16  1  0  0  0
 15 18  1  0  0  0
 16 17  2  0  0  0
 16 29  1  0  0  0
 17 30  1  0  0  0
 18 19  1  0  0  0
 18 20  1  0  0  0
 18 21  1  0  0  0
 19 31  1  0  0  0
 20 32  1  0  0  0
 20 33  1  0  0  0
 20 34  1  0  0  0
 21 35  1  0  0  0
 21 36  1  0  0  0
 21 37  1  0  0  0
M  END
> <s_m_entry_id>
427

> <Name>
5g

> <IC50[nM]>
12

> <s_m_Source_Path>
/projects/mai/users/kmzp800_harry/pmx_colab/docking_jobs/tnks2

> <s_m_Source_File>
tnks2_lig.sdf

> <i_m_Source_File_Index>
13

> <s_m_job_name>
glide-dock_SP_tnks2_no_cons

> <r_i_docking_score>
-10.675438722725

> <r_i_glide_gscore>
-10.675438722725

> <r_i_glide_emodel>
-60.611020228974

$$$$
8b
                    3D
 Schrodinger Suite 2021-4.
 48 51  0  0  1  0            999 V2000
  -14.3259  -14.7197  -27.8434 C   0  0  0  0  0  0
  -14.9185  -15.5697  -26.8606 C   0  0  0  0  0  0
  -14.4482  -13.3328  -27.7519 C   0  0  0  0  0  0
  -15.6481  -14.9611  -25.8029 C   0  0  0  0  0  0
  -14.7626  -16.9785  -26.8956 N   0  0  0  0  0  0
  -15.1691  -12.7533  -26.7209 C   0  0  0  0  0  0
  -15.7817  -13.5532  -25.7350 C   0  0  0  0  0  0
  -16.2250  -15.8551  -24.7452 C   0  0  0  0  0  0
  -16.0056  -17.1639  -24.9095 N   0  0  0  0  0  0
  -16.8480  -15.4306  -23.7818 O   0  0  0  0  0  0
  -15.2482  -17.7297  -25.9386 C   0  0  0  0  0  0
  -15.0198  -19.2122  -25.9064 C   0  0  0  0  0  0
  -14.8482  -19.9610  -27.0901 C   0  0  0  0  0  0
  -14.6278  -21.3512  -27.0287 C   0  0  0  0  0  0
  -14.5208  -22.0116  -25.7894 C   0  0  0  0  0  0
  -14.6806  -21.2655  -24.6043 C   0  0  0  0  0  0
  -14.9501  -19.8840  -24.6645 C   0  0  0  0  0  0
  -15.2482  -11.4128  -26.7386 F   0  0  0  0  0  0
  -14.2347  -23.3843  -25.7304 N   0  0  0  0  0  0
  -13.0075  -23.8107  -25.0644 C   0  0  0  0  0  0
  -12.1095  -24.6404  -26.0100 C   0  0  0  0  0  0
  -12.8652  -25.6651  -26.7684 N   0  3  0  0  0  0
  -14.0019  -25.0754  -27.5201 C   0  0  0  0  0  0
  -14.9598  -24.3232  -26.5799 C   0  0  0  0  0  0
  -11.9878  -26.4957  -27.6222 C   0  0  0  0  0  0
  -13.9897  -12.6809  -28.4830 H   0  0  0  0  0  0
  -16.3351  -13.0884  -24.9307 H   0  0  0  0  0  0
  -16.4200  -17.7815  -24.2248 H   0  0  0  0  0  0
  -14.8484  -19.4714  -28.0529 H   0  0  0  0  0  0
  -14.4811  -21.9036  -27.9386 H   0  0  0  0  0  0
  -14.6071  -21.7518  -23.6421 H   0  0  0  0  0  0
  -15.0852  -19.3452  -23.7403 H   0  0  0  0  0  0
  -12.4482  -22.9400  -24.7207 H   0  0  0  0  0  0
  -13.2592  -24.3727  -24.1668 H   0  0  0  0  0  0
  -11.3136  -25.1264  -25.4409 H   0  0  0  0  0  0
  -11.6482  -23.9731  -26.7382 H   0  0  0  0  0  0
  -14.5483  -25.8586  -28.0472 H   0  0  0  0  0  0
  -13.6141  -24.3939  -28.2782 H   0  0  0  0  0  0
  -15.4863  -25.0303  -25.9387 H   0  0  0  0  0  0
  -15.7315  -23.8131  -27.1581 H   0  0  0  0  0  0
  -11.5094  -25.8950  -28.3971 H   0  0  0  0  0  0
  -11.2056  -26.9688  -27.0270 H   0  0  0  0  0  0
  -12.5584  -27.2881  -28.1081 H   0  0  0  0  0  0
  -13.2659  -26.2860  -26.0807 H   0  0  0  0  0  0
  -13.5116  -15.1875  -29.0194 C   0  0  0  0  0  0
  -14.0482  -15.9727  -29.5131 H   0  0  0  0  0  0
  -13.3548  -14.3989  -29.7561 H   0  0  0  0  0  0
  -12.5367  -15.5727  -28.7383 H   0  0  0  0  0  0
  1  2  2  0  0  0
  1  3  1  0  0  0
  1 45  1  0  0  0
  2  4  1  0  0  0
  2  5  1  0  0  0
  3  6  2  0  0  0
  3 26  1  0  0  0
  4  7  2  0  0  0
  4  8  1  0  0  0
  5 11  2  0  0  0
  6  7  1  0  0  0
  6 18  1  0  0  0
  7 27  1  0  0  0
  8  9  1  0  0  0
  8 10  2  0  0  0
  9 11  1  0  0  0
  9 28  1  0  0  0
 11 12  1  0  0  0
 12 13  2  0  0  0
 12 17  1  0  0  0
 13 14  1  0  0  0
 13 29  1  0  0  0
 14 15  2  0  0  0
 14 30  1  0  0  0
 15 16  1  0  0  0
 15 19  1  0  0  0
 16 17  2  0  0  0
 16 31  1  0  0  0
 17 32  1  0  0  0
 19 20  1  0  0  0
 19 24  1  0  0  0
 20 21  1  0  0  0
 20 33  1  0  0  0
 20 34  1  0  0  0
 21 22  1  0  0  0
 21 35  1  0  0  0
 21 36  1  0  0  0
 22 23  1  0  0  0
 22 25  1  0  0  0
 22 44  1  0  0  0
 23 24  1  0  0  0
 23 37  1  0  0  0
 23 38  1  0  0  0
 24 39  1  0  0  0
 24 40  1  0  0  0
 25 41  1  0  0  0
 25 42  1  0  0  0
 25 43  1  0  0  0
 45 46  1  0  0  0
 45 47  1  0  0  0
 45 48  1  0  0  0
M  CHG  1  22   1
M  END
> <s_m_entry_id>
428

> <Name>
8b

> <IC50[nM]>
1.8

> <s_m_Source_Path>
/projects/mai/users/kmzp800_harry/pmx_colab/docking_jobs/tnks2

> <s_m_Source_File>
tnks2_lig.sdf

> <i_m_Source_File_Index>
14

> <s_m_job_name>
glide-dock_SP_tnks2_no_cons

> <r_i_docking_score>
-10.233635601305

> <r_i_glide_gscore>
-10.233635601305

> <r_i_glide_emodel>
-59.861904401727

$$$$
8e
                    3D
 Schrodinger Suite 2021-4.
 46 49  0  0  1  0            999 V2000
  -14.3676  -14.9950  -27.7534 C   0  0  0  0  0  0
  -14.9682  -15.7713  -26.7380 C   0  0  0  0  0  0
  -14.4482  -13.5965  -27.7282 C   0  0  0  0  0  0
  -15.6580  -15.1187  -25.6884 C   0  0  0  0  0  0
  -14.8231  -17.1694  -26.7385 N   0  0  0  0  0  0
  -15.1593  -12.9549  -26.7057 C   0  0  0  0  0  0
  -15.7674  -13.7085  -25.6779 C   0  0  0  0  0  0
  -16.2357  -15.9787  -24.6006 C   0  0  0  0  0  0
  -16.0317  -17.2951  -24.7334 N   0  0  0  0  0  0
  -16.8482  -15.5260  -23.6433 O   0  0  0  0  0  0
  -15.3063  -17.8939  -25.7673 C   0  0  0  0  0  0
  -15.1354  -19.3755  -25.7843 C   0  0  0  0  0  0
  -14.8482  -20.0119  -27.0055 C   0  0  0  0  0  0
  -14.6777  -21.3970  -27.0487 C   0  0  0  0  0  0
  -14.7708  -22.1849  -25.8926 C   0  0  0  0  0  0
  -15.0617  -21.5578  -24.6632 C   0  0  0  0  0  0
  -15.2481  -20.1583  -24.6098 C   0  0  0  0  0  0
  -13.6493  -15.5726  -28.7385 F   0  0  0  0  0  0
  -15.2481  -11.6084  -26.7386 F   0  0  0  0  0  0
  -14.5444  -23.6842  -26.0141 C   0  0  1  0  0  0
  -15.5681  -24.3194  -26.9809 C   0  0  0  0  0  0
  -15.2689  -25.7988  -27.2513 C   0  0  0  0  0  0
  -13.8903  -25.9789  -27.7735 N   0  3  1  0  0  0
  -12.8625  -25.4660  -26.8334 C   0  0  0  0  0  0
  -13.1017  -23.9856  -26.4868 C   0  0  0  0  0  0
  -13.6205  -27.3737  -28.1901 C   0  0  0  0  0  0
  -13.9736  -13.0092  -28.5005 H   0  0  0  0  0  0
  -16.3023  -13.2040  -24.8846 H   0  0  0  0  0  0
  -16.4688  -17.8923  -24.0424 H   0  0  0  0  0  0
  -14.7528  -19.4506  -27.9244 H   0  0  0  0  0  0
  -14.4476  -21.8592  -27.9818 H   0  0  0  0  0  0
  -15.1424  -22.1403  -23.7575 H   0  0  0  0  0  0
  -15.4756  -19.6998  -23.6589 H   0  0  0  0  0  0
  -14.6893  -24.1167  -25.0249 H   0  0  0  0  0  0
  -15.5739  -23.7993  -27.9382 H   0  0  0  0  0  0
  -16.5753  -24.2131  -26.5756 H   0  0  0  0  0  0
  -15.9879  -26.1842  -27.9760 H   0  0  0  0  0  0
  -15.4090  -26.3727  -26.3387 H   0  0  0  0  0  0
  -11.8736  -25.5690  -27.2831 H   0  0  0  0  0  0
  -12.8481  -26.0830  -25.9386 H   0  0  0  0  0  0
  -12.3939  -23.6658  -25.7211 H   0  0  0  0  0  0
  -12.8640  -23.4002  -27.3752 H   0  0  0  0  0  0
  -13.6602  -28.0540  -27.3383 H   0  0  0  0  0  0
  -14.3521  -27.7063  -28.9274 H   0  0  0  0  0  0
  -12.6328  -27.4575  -28.6451 H   0  0  0  0  0  0
  -13.8240  -25.4150  -28.6093 H   0  0  0  0  0  0
  1  2  2  0  0  0
  1  3  1  0  0  0
  1 18  1  0  0  0
  2  4  1  0  0  0
  2  5  1  0  0  0
  3  6  2  0  0  0
  3 27  1  0  0  0
  4  7  2  0  0  0
  4  8  1  0  0  0
  5 11  2  0  0  0
  6  7  1  0  0  0
  6 19  1  0  0  0
  7 28  1  0  0  0
  8  9  1  0  0  0
  8 10  2  0  0  0
  9 11  1  0  0  0
  9 29  1  0  0  0
 11 12  1  0  0  0
 12 13  2  0  0  0
 12 17  1  0  0  0
 13 14  1  0  0  0
 13 30  1  0  0  0
 14 15  2  0  0  0
 14 31  1  0  0  0
 15 16  1  0  0  0
 15 20  1  0  0  0
 16 17  2  0  0  0
 16 32  1  0  0  0
 17 33  1  0  0  0
 20 21  1  0  0  0
 20 25  1  0  0  0
 20 34  1  0  0  0
 21 22  1  0  0  0
 21 35  1  0  0  0
 21 36  1  0  0  0
 22 23  1  0  0  0
 22 37  1  0  0  0
 22 38  1  0  0  0
 23 24  1  0  0  0
 23 26  1  0  0  0
 23 46  1  0  0  0
 24 25  1  0  0  0
 24 39  1  0  0  0
 24 40  1  0  0  0
 25 41  1  0  0  0
 25 42  1  0  0  0
 26 43  1  0  0  0
 26 44  1  0  0  0
 26 45  1  0  0  0
M  CHG  1  23   1
M  END
> <s_m_entry_id>
429

> <Name>
8e

> <IC50[nM]>
31

> <s_m_Source_Path>
/projects/mai/users/kmzp800_harry/pmx_colab/docking_jobs/tnks2

> <s_m_Source_File>
tnks2_lig.sdf

> <i_m_Source_File_Index>
15

> <s_m_job_name>
glide-dock_SP_tnks2_no_cons

> <r_i_docking_score>
-10.7820482469592

> <r_i_glide_gscore>
-10.7820482469592

> <r_i_glide_emodel>
-64.3901340772122

$$$$
7
                    3D
 Schrodinger Suite 2021-4.
 36 38  0  0  1  0            999 V2000
  -15.0867  -19.4271  -25.7482 C   0  0  0  0  0  0
  -14.8485  -20.0117  -26.9413 N   0  0  0  0  0  0
  -15.0697  -20.1404  -24.5319 C   0  0  0  0  0  0
  -15.3134  -17.9562  -25.7570 C   0  0  0  0  0  0
  -14.5777  -21.3238  -26.9663 C   0  0  0  0  0  0
  -14.7517  -21.5104  -24.5679 C   0  0  0  0  0  0
  -14.4804  -22.1186  -25.8134 C   0  0  0  0  0  0
  -16.0473  -17.3537  -24.7280 N   0  0  0  0  0  0
  -16.2374  -16.0349  -24.5926 C   0  0  0  0  0  0
  -14.8474  -17.2396  -26.7395 N   0  0  0  0  0  0
  -14.9885  -15.8482  -26.7386 C   0  0  0  0  0  0
  -15.6499  -15.1823  -25.6831 C   0  0  0  0  0  0
  -15.7255  -13.7701  -25.6772 C   0  0  0  0  0  0
  -15.1137  -13.0374  -26.7204 C   0  0  0  0  0  0
  -14.4495  -13.7032  -27.7653 C   0  0  0  0  0  0
  -14.4056  -15.1064  -27.7834 C   0  0  0  0  0  0
  -16.8495  -15.5702  -23.6404 O   0  0  0  0  0  0
  -14.1477  -23.5951  -25.9033 C   0  0  0  0  0  0
  -13.3277  -23.9680  -24.8138 O   0  0  0  0  0  0
  -15.1677  -11.6878  -26.7387 F   0  0  0  0  0  0
  -13.3289  -24.0121  -27.1373 C   0  0  0  0  0  0
  -15.4816  -24.3727  -25.9385 C   0  0  0  0  0  0
  -15.2743  -19.6581  -23.5885 H   0  0  0  0  0  0
  -14.4059  -21.7402  -27.9392 H   0  0  0  0  0  0
  -14.7145  -22.0793  -23.6502 H   0  0  0  0  0  0
  -16.4907  -17.9513  -24.0400 H   0  0  0  0  0  0
  -16.2301  -13.2488  -24.8745 H   0  0  0  0  0  0
  -13.9886  -13.1319  -28.5591 H   0  0  0  0  0  0
  -13.8983  -15.6130  -28.5901 H   0  0  0  0  0  0
  -13.9413  -23.9736  -28.0329 H   0  0  0  0  0  0
  -12.9866  -25.0450  -27.0512 H   0  0  0  0  0  0
  -12.4483  -23.3899  -27.2825 H   0  0  0  0  0  0
  -16.1226  -24.0249  -26.7496 H   0  0  0  0  0  0
  -15.3284  -25.4383  -26.1063 H   0  0  0  0  0  0
  -16.0479  -24.2555  -25.0120 H   0  0  0  0  0  0
  -12.4746  -23.5731  -24.9255 H   0  0  0  0  0  0
  1  2  2  0  0  0
  1  3  1  0  0  0
  1  4  1  0  0  0
  2  5  1  0  0  0
  3  6  2  0  0  0
  3 23  1  0  0  0
  4  8  1  0  0  0
  4 10  2  0  0  0
  5  7  2  0  0  0
  5 24  1  0  0  0
  6  7  1  0  0  0
  6 25  1  0  0  0
  7 18  1  0  0  0
  8  9  1  0  0  0
  8 26  1  0  0  0
  9 12  1  0  0  0
  9 17  2  0  0  0
 10 11  1  0  0  0
 11 12  2  0  0  0
 11 16  1  0  0  0
 12 13  1  0  0  0
 13 14  2  0  0  0
 13 27  1  0  0  0
 14 15  1  0  0  0
 14 20  1  0  0  0
 15 16  2  0  0  0
 15 28  1  0  0  0
 16 29  1  0  0  0
 18 19  1  0  0  0
 18 21  1  0  0  0
 18 22  1  0  0  0
 19 36  1  0  0  0
 21 30  1  0  0  0
 21 31  1  0  0  0
 21 32  1  0  0  0
 22 33  1  0  0  0
 22 34  1  0  0  0
 22 35  1  0  0  0
M  END
> <s_m_entry_id>
430

> <Name>
7

> <IC50[nM]>
700

> <s_m_Source_Path>
/projects/mai/users/kmzp800_harry/pmx_colab/docking_jobs/tnks2

> <s_m_Source_File>
tnks2_lig.sdf

> <i_m_Source_File_Index>
16

> <s_m_job_name>
glide-dock_SP_tnks2_no_cons

> <r_i_docking_score>
-10.5853723243358

> <r_i_glide_gscore>
-10.5853723243358

> <r_i_glide_emodel>
-65.7634371043015

$$$$
5c
                    3D
 Schrodinger Suite 2021-4.
 37 39  0  0  1  0            999 V2000
  -14.1845  -15.2925  -27.9791 C   0  0  0  0  0  0
  -14.8482  -15.9403  -26.9192 C   0  0  0  0  0  0
  -14.2149  -13.8963  -28.0983 C   0  0  0  0  0  0
  -15.5629  -15.2038  -25.9561 C   0  0  0  0  0  0
  -14.7120  -17.3188  -26.8213 N   0  0  0  0  0  0
  -14.9079  -13.1479  -27.1386 C   0  0  0  0  0  0
  -15.5944  -13.7976  -26.0974 C   0  0  0  0  0  0
  -16.1881  -15.9835  -24.8207 C   0  0  0  0  0  0
  -15.9705  -17.3051  -24.8451 N   0  0  0  0  0  0
  -16.8482  -15.4855  -23.9189 O   0  0  0  0  0  0
  -15.2614  -17.9733  -25.8451 C   0  0  0  0  0  0
  -15.1920  -19.4474  -25.8680 C   0  0  0  0  0  0
  -14.8482  -20.0761  -27.0776 C   0  0  0  0  0  0
  -14.7649  -21.4605  -27.1386 C   0  0  0  0  0  0
  -15.0851  -22.2547  -26.0405 C   0  0  0  0  0  0
  -15.4204  -21.6307  -24.8162 C   0  0  0  0  0  0
  -15.4670  -20.2277  -24.7270 C   0  0  0  0  0  0
  -15.0437  -23.7575  -26.2210 C   0  0  0  0  0  0
  -15.6482  -24.3727  -25.1386 O   0  0  0  0  0  0
  -13.5870  -24.2418  -26.3386 C   0  0  0  0  0  0
  -15.8946  -24.2405  -27.4054 C   0  0  0  0  0  0
  -16.4482  -12.8068  -25.0268 Cl  0  0  0  0  0  0
  -13.6482  -15.8740  -28.7125 H   0  0  0  0  0  0
  -13.6990  -13.4011  -28.9082 H   0  0  0  0  0  0
  -14.9319  -12.0698  -27.2165 H   0  0  0  0  0  0
  -16.4139  -17.8541  -24.1209 H   0  0  0  0  0  0
  -14.6134  -19.5166  -27.9718 H   0  0  0  0  0  0
  -14.4482  -21.9182  -28.0460 H   0  0  0  0  0  0
  -15.6482  -22.2157  -23.9386 H   0  0  0  0  0  0
  -15.7254  -19.7688  -23.7841 H   0  0  0  0  0  0
  -15.6482  -25.3098  -25.2653 H   0  0  0  0  0  0
  -13.0839  -23.7921  -27.1949 H   0  0  0  0  0  0
  -13.5285  -25.3226  -26.4647 H   0  0  0  0  0  0
  -13.0117  -23.9796  -25.4491 H   0  0  0  0  0  0
  -15.4824  -23.8970  -28.3453 H   0  0  0  0  0  0
  -15.9300  -25.3295  -27.4598 H   0  0  0  0  0  0
  -16.9206  -23.8771  -27.3345 H   0  0  0  0  0  0
  1  2  2  0  0  0
  1  3  1  0  0  0
  1 23  1  0  0  0
  2  4  1  0  0  0
  2  5  1  0  0  0
  3  6  2  0  0  0
  3 24  1  0  0  0
  4  7  2  0  0  0
  4  8  1  0  0  0
  5 11  2  0  0  0
  6  7  1  0  0  0
  6 25  1  0  0  0
  7 22  1  0  0  0
  8  9  1  0  0  0
  8 10  2  0  0  0
  9 11  1  0  0  0
  9 26  1  0  0  0
 11 12  1  0  0  0
 12 13  2  0  0  0
 12 17  1  0  0  0
 13 14  1  0  0  0
 13 27  1  0  0  0
 14 15  2  0  0  0
 14 28  1  0  0  0
 15 16  1  0  0  0
 15 18  1  0  0  0
 16 17  2  0  0  0
 16 29  1  0  0  0
 17 30  1  0  0  0
 18 19  1  0  0  0
 18 20  1  0  0  0
 18 21  1  0  0  0
 19 31  1  0  0  0
 20 32  1  0  0  0
 20 33  1  0  0  0
 20 34  1  0  0  0
 21 35  1  0  0  0
 21 36  1  0  0  0
 21 37  1  0  0  0
M  END
> <s_m_entry_id>
431

> <Name>
5c

> <IC50[nM]>
50

> <s_m_Source_Path>
/projects/mai/users/kmzp800_harry/pmx_colab/docking_jobs/tnks2

> <s_m_Source_File>
tnks2_lig.sdf

> <i_m_Source_File_Index>
17

> <s_m_job_name>
glide-dock_SP_tnks2_no_cons

> <r_i_docking_score>
-9.49210567467372

> <r_i_glide_gscore>
-9.49210567467372

> <r_i_glide_emodel>
-44.9837977553606

$$$$
8a
                    3D
 Schrodinger Suite 2021-4.
 45 48  0  0  1  0            999 V2000
  -14.3343  -15.3730  -27.7680 C   0  0  0  0  0  0
  -14.9127  -16.1410  -26.7386 C   0  0  0  0  0  0
  -14.4483  -13.9714  -27.7616 C   0  0  0  0  0  0
  -15.6483  -15.4954  -25.7183 C   0  0  0  0  0  0
  -14.7217  -17.5314  -26.7335 N   0  0  0  0  0  0
  -15.1648  -13.3280  -26.7360 C   0  0  0  0  0  0
  -15.7798  -14.0877  -25.7171 C   0  0  0  0  0  0
  -16.2593  -16.3593  -24.6565 C   0  0  0  0  0  0
  -15.9557  -17.6653  -24.7387 N   0  0  0  0  0  0
  -16.9859  -15.9117  -23.7748 O   0  0  0  0  0  0
  -15.1895  -18.2551  -25.7543 C   0  0  0  0  0  0
  -14.9198  -19.7237  -25.7467 C   0  0  0  0  0  0
  -14.8482  -20.4139  -26.9724 C   0  0  0  0  0  0
  -14.5186  -21.7755  -26.9963 C   0  0  0  0  0  0
  -14.2141  -22.4757  -25.8176 C   0  0  0  0  0  0
  -14.2971  -21.7914  -24.5846 C   0  0  0  0  0  0
  -14.6687  -20.4291  -24.5468 C   0  0  0  0  0  0
  -15.2483  -11.9772  -26.7386 F   0  0  0  0  0  0
  -13.8011  -23.8157  -25.9038 N   0  0  0  0  0  0
  -14.5504  -24.7589  -26.7357 C   0  0  0  0  0  0
  -13.6055  -25.6500  -27.5649 C   0  0  0  0  0  0
  -12.5035  -26.2084  -26.7386 N   0  3  0  0  0  0
  -11.7177  -25.1428  -26.0715 C   0  0  0  0  0  0
  -12.6052  -24.2471  -25.1818 C   0  0  0  0  0  0
  -11.6484  -27.1502  -27.4932 C   0  0  0  0  0  0
  -13.9838  -13.3826  -28.5396 H   0  0  0  0  0  0
  -16.3362  -13.5886  -24.9351 H   0  0  0  0  0  0
  -16.3864  -18.2683  -24.0489 H   0  0  0  0  0  0
  -15.0115  -19.9003  -27.9083 H   0  0  0  0  0  0
  -14.4505  -22.2758  -27.9385 H   0  0  0  0  0  0
  -14.0670  -22.3030  -23.6608 H   0  0  0  0  0  0
  -14.7173  -19.9296  -23.5921 H   0  0  0  0  0  0
  -15.2379  -24.2454  -27.4075 H   0  0  0  0  0  0
  -15.1935  -25.3614  -26.0938 H   0  0  0  0  0  0
  -14.1755  -26.4585  -28.0246 H   0  0  0  0  0  0
  -13.1771  -25.0646  -28.3807 H   0  0  0  0  0  0
  -10.9147  -25.5745  -25.4721 H   0  0  0  0  0  0
  -11.2482  -24.5322  -26.8443 H   0  0  0  0  0  0
  -12.8484  -24.7694  -24.2577 H   0  0  0  0  0  0
  -12.0482  -23.3672  -24.8673 H   0  0  0  0  0  0
  -11.1343  -26.6443  -28.3123 H   0  0  0  0  0  0
  -10.8948  -27.5956  -26.8411 H   0  0  0  0  0  0
  -12.2443  -27.9632  -27.9101 H   0  0  0  0  0  0
  -12.9355  -26.7424  -25.9983 H   0  0  0  0  0  0
  -13.7766  -15.8583  -28.5553 H   0  0  0  0  0  0
  1  2  2  0  0  0
  1  3  1  0  0  0
  1 45  1  0  0  0
  2  4  1  0  0  0
  2  5  1  0  0  0
  3  6  2  0  0  0
  3 26  1  0  0  0
  4  7  2  0  0  0
  4  8  1  0  0  0
  5 11  2  0  0  0
  6  7  1  0  0  0
  6 18  1  0  0  0
  7 27  1  0  0  0
  8  9  1  0  0  0
  8 10  2  0  0  0
  9 11  1  0  0  0
  9 28  1  0  0  0
 11 12  1  0  0  0
 12 13  2  0  0  0
 12 17  1  0  0  0
 13 14  1  0  0  0
 13 29  1  0  0  0
 14 15  2  0  0  0
 14 30  1  0  0  0
 15 16  1  0  0  0
 15 19  1  0  0  0
 16 17  2  0  0  0
 16 31  1  0  0  0
 17 32  1  0  0  0
 19 20  1  0  0  0
 19 24  1  0  0  0
 20 21  1  0  0  0
 20 33  1  0  0  0
 20 34  1  0  0  0
 21 22  1  0  0  0
 21 35  1  0  0  0
 21 36  1  0  0  0
 22 23  1  0  0  0
 22 25  1  0  0  0
 22 44  1  0  0  0
 23 24  1  0  0  0
 23 37  1  0  0  0
 23 38  1  0  0  0
 24 39  1  0  0  0
 24 40  1  0  0  0
 25 41  1  0  0  0
 25 42  1  0  0  0
 25 43  1  0  0  0
M  CHG  1  22   1
M  END
> <s_m_entry_id>
432

> <Name>
8a

> <IC50[nM]>
12

> <s_m_Source_Path>
/projects/mai/users/kmzp800_harry/pmx_colab/docking_jobs/tnks2

> <s_m_Source_File>
tnks2_lig.sdf

> <i_m_Source_File_Index>
18

> <s_m_job_name>
glide-dock_SP_tnks2_no_cons

> <r_i_docking_score>
-11.0970641397385

> <r_i_glide_gscore>
-11.0970641397385

> <r_i_glide_emodel>
-70.5045589149425

$$$$
5m
                    3D
 Schrodinger Suite 2021-4.
 40 42  0  0  1  0            999 V2000
  -15.1469  -19.1844  -25.7865 C   0  0  0  0  0  0
  -15.2483  -19.9517  -24.6049 C   0  0  0  0  0  0
  -14.8482  -19.8307  -27.0011 C   0  0  0  0  0  0
  -15.0034  -21.3378  -24.6373 C   0  0  0  0  0  0
  -14.6229  -21.2111  -27.0297 C   0  0  0  0  0  0
  -14.8482  -16.9813  -26.7387 N   0  0  0  0  0  0
  -14.6573  -21.9751  -25.8495 C   0  0  0  0  0  0
  -14.3068  -23.4590  -25.8892 C   0  0  0  0  0  0
  -14.9803  -15.5816  -26.7369 C   0  0  0  0  0  0
  -15.6482  -14.9316  -25.6710 C   0  0  0  0  0  0
  -15.1502  -12.7714  -26.6818 C   0  0  0  0  0  0
  -14.4483  -13.4015  -27.7079 C   0  0  0  0  0  0
  -15.7511  -13.5223  -25.6501 C   0  0  0  0  0  0
  -14.3887  -14.7969  -27.7584 C   0  0  0  0  0  0
  -16.2078  -15.7893  -24.5732 C   0  0  0  0  0  0
  -16.0221  -17.1081  -24.7142 N   0  0  0  0  0  0
  -15.3236  -17.7060  -25.7657 C   0  0  0  0  0  0
  -16.7851  -15.3282  -23.5986 O   0  0  0  0  0  0
  -15.5941  -24.2899  -25.7632 C   0  0  0  0  0  0
  -13.7073  -23.8479  -27.1123 O   0  0  0  0  0  0
  -13.2513  -23.7763  -24.8143 C   0  0  0  0  0  0
  -13.6483  -15.3948  -28.9222 C   0  0  0  0  0  0
  -15.2472  -11.4328  -26.7386 F   0  0  0  0  0  0
  -15.4967  -19.4910  -23.6604 H   0  0  0  0  0  0
  -14.7695  -19.2757  -27.9251 H   0  0  0  0  0  0
  -15.0643  -21.9026  -23.7194 H   0  0  0  0  0  0
  -14.3702  -21.6663  -27.9662 H   0  0  0  0  0  0
  -13.9902  -12.7991  -28.4797 H   0  0  0  0  0  0
  -16.2779  -13.0185  -24.8515 H   0  0  0  0  0  0
  -16.4248  -17.7062  -24.0058 H   0  0  0  0  0  0
  -16.0414  -24.1810  -24.7750 H   0  0  0  0  0  0
  -15.4218  -25.3492  -25.9386 H   0  0  0  0  0  0
  -16.3358  -23.9710  -26.4967 H   0  0  0  0  0  0
  -13.4757  -24.7622  -27.0554 H   0  0  0  0  0  0
  -13.6540  -23.6958  -23.8061 H   0  0  0  0  0  0
  -12.8313  -24.7727  -24.9248 H   0  0  0  0  0  0
  -12.4178  -23.0787  -24.8832 H   0  0  0  0  0  0
  -13.7668  -14.7728  -29.8105 H   0  0  0  0  0  0
  -12.5834  -15.5023  -28.7386 H   0  0  0  0  0  0
  -14.0562  -16.3727  -29.1385 H   0  0  0  0  0  0
  1  2  2  0  0  0
  1  3  1  0  0  0
  1 17  1  0  0  0
  2  4  1  0  0  0
  2 24  1  0  0  0
  3  5  2  0  0  0
  3 25  1  0  0  0
  4  7  2  0  0  0
  4 26  1  0  0  0
  5  7  1  0  0  0
  5 27  1  0  0  0
  6  9  1  0  0  0
  6 17  2  0  0  0
  7  8  1  0  0  0
  8 19  1  0  0  0
  8 20  1  0  0  0
  8 21  1  0  0  0
  9 10  2  0  0  0
  9 14  1  0  0  0
 10 13  1  0  0  0
 10 15  1  0  0  0
 11 12  1  0  0  0
 11 13  2  0  0  0
 11 23  1  0  0  0
 12 14  2  0  0  0
 12 28  1  0  0  0
 13 29  1  0  0  0
 14 22  1  0  0  0
 15 16  1  0  0  0
 15 18  2  0  0  0
 16 17  1  0  0  0
 16 30  1  0  0  0
 19 31  1  0  0  0
 19 32  1  0  0  0
 19 33  1  0  0  0
 20 34  1  0  0  0
 21 35  1  0  0  0
 21 36  1  0  0  0
 21 37  1  0  0  0
 22 38  1  0  0  0
 22 39  1  0  0  0
 22 40  1  0  0  0
M  END
> <s_m_entry_id>
433

> <Name>
5m

> <IC50[nM]>
0.5

> <s_m_Source_Path>
/projects/mai/users/kmzp800_harry/pmx_colab/docking_jobs/tnks2

> <s_m_Source_File>
tnks2_lig.sdf

> <i_m_Source_File_Index>
19

> <s_m_job_name>
glide-dock_SP_tnks2_no_cons

> <r_i_docking_score>
-10.0369096006826

> <r_i_glide_gscore>
-10.0369096006826

> <r_i_glide_emodel>
-56.3969826292057

$$$$
5p
                    3D
 Schrodinger Suite 2021-4.
 47 49  0  0  1  0            999 V2000
  -15.1653  -19.3359  -25.8034 C   0  0  0  0  0  0
  -15.2482  -20.0829  -24.6134 C   0  0  0  0  0  0
  -14.8482  -19.9902  -27.0111 C   0  0  0  0  0  0
  -15.3433  -17.8623  -25.7781 C   0  0  0  0  0  0
  -14.9314  -21.4497  -24.6255 C   0  0  0  0  0  0
  -14.4956  -21.3477  -27.0105 C   0  0  0  0  0  0
  -14.4951  -22.0852  -25.8122 C   0  0  0  0  0  0
  -16.0482  -17.2571  -24.7325 N   0  0  0  0  0  0
  -16.2371  -15.9377  -24.5960 C   0  0  0  0  0  0
  -14.8482  -17.1458  -26.7437 N   0  0  0  0  0  0
  -14.9849  -15.7541  -26.7386 C   0  0  0  0  0  0
  -15.6482  -15.0875  -25.6838 C   0  0  0  0  0  0
  -15.7203  -13.6763  -25.6768 C   0  0  0  0  0  0
  -15.1108  -12.9445  -26.7197 C   0  0  0  0  0  0
  -14.4482  -13.6094  -27.7659 C   0  0  0  0  0  0
  -14.4077  -15.0131  -27.7869 C   0  0  0  0  0  0
  -16.8481  -15.4765  -23.6416 O   0  0  0  0  0  0
  -14.0787  -23.5575  -25.7842 C   0  0  0  0  0  0
  -15.2481  -24.3727  -25.7642 O   0  0  0  0  0  0
  -15.1642  -11.5953  -26.7386 F   0  0  0  0  0  0
  -16.1392  -24.2735  -26.8763 C   0  0  0  0  0  0
  -16.3968  -25.6682  -27.4484 C   0  0  0  0  0  0
  -17.2482  -25.5381  -28.5756 O   0  0  0  0  0  0
  -17.5846  -26.7891  -29.1487 C   0  0  0  0  0  0
  -13.2482  -23.8098  -24.5054 C   0  0  0  0  0  0
  -13.1838  -24.0477  -26.9528 C   0  0  0  0  0  0
  -15.5262  -19.6211  -23.6773 H   0  0  0  0  0  0
  -14.7959  -19.4440  -27.9417 H   0  0  0  0  0  0
  -15.0062  -21.9891  -23.6951 H   0  0  0  0  0  0
  -14.1993  -21.7983  -27.9386 H   0  0  0  0  0  0
  -16.4860  -17.8523  -24.0408 H   0  0  0  0  0  0
  -16.2276  -13.1559  -24.8763 H   0  0  0  0  0  0
  -13.9865  -13.0367  -28.5574 H   0  0  0  0  0  0
  -13.9002  -15.5217  -28.5935 H   0  0  0  0  0  0
  -15.7687  -23.6340  -27.6748 H   0  0  0  0  0  0
  -17.0715  -23.8181  -26.5498 H   0  0  0  0  0  0
  -16.8482  -26.3095  -26.6905 H   0  0  0  0  0  0
  -15.4537  -26.1279  -27.7474 H   0  0  0  0  0  0
  -18.2343  -26.6340  -30.0101 H   0  0  0  0  0  0
  -18.1174  -27.4187  -28.4349 H   0  0  0  0  0  0
  -16.6944  -27.3198  -29.4889 H   0  0  0  0  0  0
  -12.4483  -23.0738  -24.4238 H   0  0  0  0  0  0
  -13.8393  -23.7545  -23.5950 H   0  0  0  0  0  0
  -12.7496  -24.7727  -24.5065 H   0  0  0  0  0  0
  -12.2060  -23.5727  -26.9490 H   0  0  0  0  0  0
  -12.9951  -25.1171  -26.8515 H   0  0  0  0  0  0
  -13.6199  -23.9195  -27.9386 H   0  0  0  0  0  0
  1  2  2  0  0  0
  1  3  1  0  0  0
  1  4  1  0  0  0
  2  5  1  0  0  0
  2 27  1  0  0  0
  3  6  2  0  0  0
  3 28  1  0  0  0
  4  8  1  0  0  0
  4 10  2  0  0  0
  5  7  2  0  0  0
  5 29  1  0  0  0
  6  7  1  0  0  0
  6 30  1  0  0  0
  7 18  1  0  0  0
  8  9  1  0  0  0
  8 31  1  0  0  0
  9 12  1  0  0  0
  9 17  2  0  0  0
 10 11  1  0  0  0
 11 12  2  0  0  0
 11 16  1  0  0  0
 12 13  1  0  0  0
 13 14  2  0  0  0
 13 32  1  0  0  0
 14 15  1  0  0  0
 14 20  1  0  0  0
 15 16  2  0  0  0
 15 33  1  0  0  0
 16 34  1  0  0  0
 18 19  1  0  0  0
 18 25  1  0  0  0
 18 26  1  0  0  0
 19 21  1  0  0  0
 21 22  1  0  0  0
 21 35  1  0  0  0
 21 36  1  0  0  0
 22 23  1  0  0  0
 22 37  1  0  0  0
 22 38  1  0  0  0
 23 24  1  0  0  0
 24 39  1  0  0  0
 24 40  1  0  0  0
 24 41  1  0  0  0
 25 42  1  0  0  0
 25 43  1  0  0  0
 25 44  1  0  0  0
 26 45  1  0  0  0
 26 46  1  0  0  0
 26 47  1  0  0  0
M  END
> <s_m_entry_id>
434

> <Name>
5p

> <IC50[nM]>
20

> <s_m_Source_Path>
/projects/mai/users/kmzp800_harry/pmx_colab/docking_jobs/tnks2

> <s_m_Source_File>
tnks2_lig.sdf

> <i_m_Source_File_Index>
20

> <s_m_job_name>
glide-dock_SP_tnks2_no_cons

> <r_i_docking_score>
-10.6681071788421

> <r_i_glide_gscore>
-10.6681071788421

> <r_i_glide_emodel>
-67.1734179443375

$$$$
5i
                    3D
 Schrodinger Suite 2021-4.
 40 42  0  0  1  0            999 V2000
  -14.4493  -14.7292  -27.6042 C   0  0  0  0  0  0
  -15.0293  -15.5865  -26.6376 C   0  0  0  0  0  0
  -14.5464  -13.3314  -27.4722 C   0  0  0  0  0  0
  -15.7206  -15.0108  -25.5431 C   0  0  0  0  0  0
  -14.8501  -16.9855  -26.7223 N   0  0  0  0  0  0
  -15.2480  -12.7728  -26.3938 C   0  0  0  0  0  0
  -15.8440  -13.6082  -25.4274 C   0  0  0  0  0  0
  -16.2865  -15.9434  -24.5153 C   0  0  0  0  0  0
  -16.0486  -17.2380  -24.7215 N   0  0  0  0  0  0
  -16.9188  -15.5724  -23.5432 O   0  0  0  0  0  0
  -15.3065  -17.7630  -25.7780 C   0  0  0  0  0  0
  -15.0903  -19.2335  -25.7986 C   0  0  0  0  0  0
  -15.1182  -19.9741  -24.5949 C   0  0  0  0  0  0
  -14.8480  -21.3534  -24.6018 C   0  0  0  0  0  0
  -14.5467  -22.0103  -25.8138 C   0  0  0  0  0  0
  -14.5931  -21.2781  -27.0127 C   0  0  0  0  0  0
  -14.8483  -19.8999  -27.0123 C   0  0  0  0  0  0
  -14.1722  -23.4864  -25.8436 C   0  0  0  0  0  0
  -13.4758  -23.8497  -27.0205 O   0  0  0  0  0  0
  -15.4565  -24.3310  -25.8245 C   0  0  0  0  0  0
  -13.1806  -23.8043  -24.7110 C   0  0  0  0  0  0
  -13.7056  -15.2884  -28.7908 C   0  0  0  0  0  0
  -14.0927  -12.6760  -28.2032 H   0  0  0  0  0  0
  -15.3213  -11.6983  -26.3394 H   0  0  0  0  0  0
  -16.3800  -13.1726  -24.5953 H   0  0  0  0  0  0
  -16.4728  -17.8823  -24.0665 H   0  0  0  0  0  0
  -15.3266  -19.4980  -23.6486 H   0  0  0  0  0  0
  -14.8552  -21.8914  -23.6658 H   0  0  0  0  0  0
  -14.3865  -21.7713  -27.9398 H   0  0  0  0  0  0
  -14.8322  -19.3597  -27.9477 H   0  0  0  0  0  0
  -12.5988  -23.5044  -26.9571 H   0  0  0  0  0  0
  -15.9900  -24.2267  -24.8794 H   0  0  0  0  0  0
  -15.2538  -25.3866  -25.9843 H   0  0  0  0  0  0
  -16.1365  -24.0231  -26.6196 H   0  0  0  0  0  0
  -13.6487  -23.7802  -23.7288 H   0  0  0  0  0  0
  -12.7042  -24.7721  -24.8298 H   0  0  0  0  0  0
  -12.3736  -23.0732  -24.7042 H   0  0  0  0  0  0
  -13.6661  -14.5751  -29.6142 H   0  0  0  0  0  0
  -12.6940  -15.5697  -28.5298 H   0  0  0  0  0  0
  -14.2092  -16.1847  -29.1365 H   0  0  0  0  0  0
  1  2  2  0  0  0
  1  3  1  0  0  0
  1 22  1  0  0  0
  2  4  1  0  0  0
  2  5  1  0  0  0
  3  6  2  0  0  0
  3 23  1  0  0  0
  4  7  2  0  0  0
  4  8  1  0  0  0
  5 11  2  0  0  0
  6  7  1  0  0  0
  6 24  1  0  0  0
  7 25  1  0  0  0
  8  9  1  0  0  0
  8 10  2  0  0  0
  9 11  1  0  0  0
  9 26  1  0  0  0
 11 12  1  0  0  0
 12 13  2  0  0  0
 12 17  1  0  0  0
 13 14  1  0  0  0
 13 27  1  0  0  0
 14 15  2  0  0  0
 14 28  1  0  0  0
 15 16  1  0  0  0
 15 18  1  0  0  0
 16 17  2  0  0  0
 16 29  1  0  0  0
 17 30  1  0  0  0
 18 19  1  0  0  0
 18 20  1  0  0  0
 18 21  1  0  0  0
 19 31  1  0  0  0
 20 32  1  0  0  0
 20 33  1  0  0  0
 20 34  1  0  0  0
 21 35  1  0  0  0
 21 36  1  0  0  0
 21 37  1  0  0  0
 22 38  1  0  0  0
 22 39  1  0  0  0
 22 40  1  0  0  0
M  END
> <s_m_entry_id>
435

> <Name>
5i

> <IC50[nM]>
1.4

> <s_m_Source_Path>
/projects/mai/users/kmzp800_harry/pmx_colab/docking_jobs/tnks2

> <s_m_Source_File>
tnks2_lig.sdf

> <i_m_Source_File_Index>
21

> <s_m_job_name>
glide-dock_SP_tnks2_no_cons

> <r_i_docking_score>
-10.6305128204978

> <r_i_glide_gscore>
-10.6305128204978

> <r_i_glide_emodel>
-64.6451168237014

$$$$
5l
                    3D
 Schrodinger Suite 2021-4.
 37 39  0  0  1  0            999 V2000
  -15.0904  -19.2728  -25.8072 C   0  0  0  0  0  0
  -14.8482  -19.9518  -27.0171 C   0  0  0  0  0  0
  -15.0968  -19.9916  -24.5939 C   0  0  0  0  0  0
  -14.5738  -21.3272  -27.0072 C   0  0  0  0  0  0
  -14.7970  -21.3611  -24.5859 C   0  0  0  0  0  0
  -14.8482  -17.0459  -26.7427 N   0  0  0  0  0  0
  -14.4934  -22.0318  -25.7917 C   0  0  0  0  0  0
  -14.0822  -23.4955  -25.7853 C   0  0  0  0  0  0
  -16.2366  -15.9585  -24.5245 C   0  0  0  0  0  0
  -16.0482  -17.2621  -24.7386 N   0  0  0  0  0  0
  -15.3110  -17.8063  -25.7914 C   0  0  0  0  0  0
  -16.8482  -15.5721  -23.5386 O   0  0  0  0  0  0
  -12.8748  -23.7854  -26.6793 C   0  0  0  0  0  0
  -13.6102  -23.8601  -24.5069 O   0  0  0  0  0  0
  -15.2715  -24.3727  -26.2030 C   0  0  0  0  0  0
  -15.0160  -15.6502  -26.6771 C   0  0  0  0  0  0
  -15.6482  -15.0460  -25.5625 C   0  0  0  0  0  0
  -15.6501  -13.6382  -25.4343 C   0  0  0  0  0  0
  -15.0666  -12.8348  -26.4320 C   0  0  0  0  0  0
  -14.4697  -13.4307  -27.5536 C   0  0  0  0  0  0
  -14.4482  -14.8309  -27.6774 C   0  0  0  0  0  0
  -13.8176  -15.3826  -28.7386 F   0  0  0  0  0  0
  -16.1627  -13.0445  -24.3386 F   0  0  0  0  0  0
  -14.8479  -19.4216  -27.9583 H   0  0  0  0  0  0
  -15.3028  -19.5055  -23.6523 H   0  0  0  0  0  0
  -14.3814  -21.8260  -27.9386 H   0  0  0  0  0  0
  -14.7839  -21.8790  -23.6379 H   0  0  0  0  0  0
  -16.4864  -17.8953  -24.0813 H   0  0  0  0  0  0
  -13.0556  -23.5743  -27.7313 H   0  0  0  0  0  0
  -12.5625  -24.8286  -26.6095 H   0  0  0  0  0  0
  -12.0482  -23.1727  -26.3386 H   0  0  0  0  0  0
  -12.8429  -23.3403  -24.3173 H   0  0  0  0  0  0
  -15.7040  -24.0385  -27.1464 H   0  0  0  0  0  0
  -14.9826  -25.4148  -26.3386 H   0  0  0  0  0  0
  -16.0482  -24.3403  -25.4425 H   0  0  0  0  0  0
  -15.0583  -11.7594  -26.3386 H   0  0  0  0  0  0
  -14.0124  -12.8120  -28.3127 H   0  0  0  0  0  0
  1  2  2  0  0  0
  1  3  1  0  0  0
  1 11  1  0  0  0
  2  4  1  0  0  0
  2 24  1  0  0  0
  3  5  2  0  0  0
  3 25  1  0  0  0
  4  7  2  0  0  0
  4 26  1  0  0  0
  5  7  1  0  0  0
  5 27  1  0  0  0
  6 11  2  0  0  0
  6 16  1  0  0  0
  7  8  1  0  0  0
  8 13  1  0  0  0
  8 14  1  0  0  0
  8 15  1  0  0  0
  9 10  1  0  0  0
  9 12  2  0  0  0
  9 17  1  0  0  0
 10 11  1  0  0  0
 10 28  1  0  0  0
 13 29  1  0  0  0
 13 30  1  0  0  0
 13 31  1  0  0  0
 14 32  1  0  0  0
 15 33  1  0  0  0
 15 34  1  0  0  0
 15 35  1  0  0  0
 16 17  2  0  0  0
 16 21  1  0  0  0
 17 18  1  0  0  0
 18 19  2  0  0  0
 18 23  1  0  0  0
 19 20  1  0  0  0
 19 36  1  0  0  0
 20 21  2  0  0  0
 20 37  1  0  0  0
 21 22  1  0  0  0
M  END
> <s_m_entry_id>
436

> <Name>
5l

> <IC50[nM]>
40

> <s_m_Source_Path>
/projects/mai/users/kmzp800_harry/pmx_colab/docking_jobs/tnks2

> <s_m_Source_File>
tnks2_lig.sdf

> <i_m_Source_File_Index>
22

> <s_m_job_name>
glide-dock_SP_tnks2_no_cons

> <r_i_docking_score>
-10.3909696371279

> <r_i_glide_gscore>
-10.3909696371279

> <r_i_glide_emodel>
-62.0316901141027

$$$$
5e
                    3D
 Schrodinger Suite 2021-4.
 37 39  0  0  1  0            999 V2000
  -14.4449  -15.3173  -27.8345 C   0  0  0  0  0  0
  -15.0031  -15.9897  -26.7384 C   0  0  0  0  0  0
  -14.4484  -13.9252  -27.8524 C   0  0  0  0  0  0
  -15.6476  -15.2942  -25.6924 C   0  0  0  0  0  0
  -14.8484  -17.3582  -26.6985 N   0  0  0  0  0  0
  -15.0132  -13.2410  -26.7692 C   0  0  0  0  0  0
  -15.6515  -13.8931  -25.7033 C   0  0  0  0  0  0
  -16.2317  -16.0951  -24.5702 C   0  0  0  0  0  0
  -16.0481  -17.4191  -24.6725 N   0  0  0  0  0  0
  -16.8293  -15.5794  -23.6305 O   0  0  0  0  0  0
  -15.3475  -18.0419  -25.7168 C   0  0  0  0  0  0
  -15.2039  -19.5003  -25.7910 C   0  0  0  0  0  0
  -15.4156  -20.3094  -24.6623 C   0  0  0  0  0  0
  -15.3210  -21.6999  -24.7956 C   0  0  0  0  0  0
  -15.0159  -22.2816  -26.0487 C   0  0  0  0  0  0
  -14.7391  -21.4582  -27.1387 C   0  0  0  0  0  0
  -14.8500  -20.0796  -27.0259 C   0  0  0  0  0  0
  -14.9893  -23.7745  -26.2518 C   0  0  0  0  0  0
  -15.6482  -24.3717  -25.1919 O   0  0  0  0  0  0
  -14.8481  -11.5728  -26.7457 Cl  0  0  0  0  0  0
  -13.5392  -24.2840  -26.3384 C   0  0  0  0  0  0
  -15.8194  -24.2461  -27.4550 C   0  0  0  0  0  0
  -13.9775  -15.8677  -28.6377 H   0  0  0  0  0  0
  -13.9804  -13.3859  -28.6635 H   0  0  0  0  0  0
  -16.0843  -13.3286  -24.8889 H   0  0  0  0  0  0
  -16.4953  -17.9993  -23.9733 H   0  0  0  0  0  0
  -15.6674  -19.8837  -23.7021 H   0  0  0  0  0  0
  -15.5148  -22.3056  -23.9279 H   0  0  0  0  0  0
  -14.4539  -21.8788  -28.0741 H   0  0  0  0  0  0
  -14.6566  -19.4897  -27.9115 H   0  0  0  0  0  0
  -15.1659  -24.1877  -24.4007 H   0  0  0  0  0  0
  -13.0105  -23.8325  -27.1786 H   0  0  0  0  0  0
  -13.5030  -25.3645  -26.4756 H   0  0  0  0  0  0
  -12.9783  -24.0448  -25.4337 H   0  0  0  0  0  0
  -15.3666  -23.9369  -28.3876 H   0  0  0  0  0  0
  -15.8854  -25.3350  -27.4882 H   0  0  0  0  0  0
  -16.8361  -23.8525  -27.4195 H   0  0  0  0  0  0
  1  2  2  0  0  0
  1  3  1  0  0  0
  1 23  1  0  0  0
  2  4  1  0  0  0
  2  5  1  0  0  0
  3  6  2  0  0  0
  3 24  1  0  0  0
  4  7  2  0  0  0
  4  8  1  0  0  0
  5 11  2  0  0  0
  6  7  1  0  0  0
  6 20  1  0  0  0
  7 25  1  0  0  0
  8  9  1  0  0  0
  8 10  2  0  0  0
  9 11  1  0  0  0
  9 26  1  0  0  0
 11 12  1  0  0  0
 12 13  2  0  0  0
 12 17  1  0  0  0
 13 14  1  0  0  0
 13 27  1  0  0  0
 14 15  2  0  0  0
 14 28  1  0  0  0
 15 16  1  0  0  0
 15 18  1  0  0  0
 16 17  2  0  0  0
 16 29  1  0  0  0
 17 30  1  0  0  0
 18 19  1  0  0  0
 18 21  1  0  0  0
 18 22  1  0  0  0
 19 31  1  0  0  0
 21 32  1  0  0  0
 21 33  1  0  0  0
 21 34  1  0  0  0
 22 35  1  0  0  0
 22 36  1  0  0  0
 22 37  1  0  0  0
M  END
> <s_m_entry_id>
437

> <Name>
5e

> <IC50[nM]>
39

> <s_m_Source_Path>
/projects/mai/users/kmzp800_harry/pmx_colab/docking_jobs/tnks2

> <s_m_Source_File>
tnks2_lig.sdf

> <i_m_Source_File_Index>
23

> <s_m_job_name>
glide-dock_SP_tnks2_no_cons

> <r_i_docking_score>
-10.1494407369687

> <r_i_glide_gscore>
-10.1494407369687

> <r_i_glide_emodel>
-52.770857202545

$$$$
5h
                    3D
 Schrodinger Suite 2021-4.
 41 43  0  0  1  0            999 V2000
  -14.5430  -14.7554  -27.5450 C   0  0  0  0  0  0
  -15.1222  -15.6758  -26.6259 C   0  0  0  0  0  0
  -14.8122  -13.3751  -27.3885 C   0  0  0  0  0  0
  -15.9315  -15.1850  -25.5688 C   0  0  0  0  0  0
  -14.8482  -17.0597  -26.7264 N   0  0  0  0  0  0
  -15.6457  -12.9132  -26.3659 C   0  0  0  0  0  0
  -16.2086  -13.8101  -25.4483 C   0  0  0  0  0  0
  -16.4713  -16.1702  -24.5822 C   0  0  0  0  0  0
  -16.0482  -17.4251  -24.7386 N   0  0  0  0  0  0
  -17.2482  -15.8628  -23.6868 O   0  0  0  0  0  0
  -15.2506  -17.8785  -25.7896 C   0  0  0  0  0  0
  -14.9397  -19.3318  -25.8184 C   0  0  0  0  0  0
  -14.8482  -20.0132  -27.0424 C   0  0  0  0  0  0
  -14.5227  -21.3759  -27.0558 C   0  0  0  0  0  0
  -14.2377  -22.0793  -25.8732 C   0  0  0  0  0  0
  -14.3878  -21.4094  -24.6390 C   0  0  0  0  0  0
  -14.7457  -20.0471  -24.6150 C   0  0  0  0  0  0
  -13.8007  -23.5393  -25.9823 C   0  0  0  0  0  0
  -13.0200  -23.7697  -27.1386 O   0  0  0  0  0  0
  -15.0556  -24.4113  -26.1330 C   0  0  0  0  0  0
  -12.8846  -23.9727  -24.8235 C   0  0  0  0  0  0
  -13.7228  -15.2217  -28.5550 O   0  0  0  0  0  0
  -13.2916  -14.2924  -29.5507 C   0  0  0  0  0  0
  -14.4055  -12.6274  -28.0524 H   0  0  0  0  0  0
  -15.8575  -11.8587  -26.3386 H   0  0  0  0  0  0
  -16.8482  -13.4393  -24.6610 H   0  0  0  0  0  0
  -16.4256  -18.1069  -24.0929 H   0  0  0  0  0  0
  -14.9706  -19.4929  -27.9786 H   0  0  0  0  0  0
  -14.4482  -21.8876  -27.9886 H   0  0  0  0  0  0
  -14.2151  -21.9169  -23.7022 H   0  0  0  0  0  0
  -14.8482  -19.5559  -23.6612 H   0  0  0  0  0  0
  -12.7222  -24.6664  -27.1229 H   0  0  0  0  0  0
  -15.6690  -24.3727  -25.2321 H   0  0  0  0  0  0
  -14.8102  -25.4533  -26.3386 H   0  0  0  0  0  0
  -15.6757  -24.0698  -26.9628 H   0  0  0  0  0  0
  -13.4222  -23.9849  -23.8789 H   0  0  0  0  0  0
  -12.4482  -24.9621  -24.9722 H   0  0  0  0  0  0
  -12.0482  -23.2829  -24.7226 H   0  0  0  0  0  0
  -12.6598  -14.7727  -30.2932 H   0  0  0  0  0  0
  -14.1440  -13.8663  -30.0808 H   0  0  0  0  0  0
  -12.6937  -13.4804  -29.1386 H   0  0  0  0  0  0
  1  2  2  0  0  0
  1  3  1  0  0  0
  1 22  1  0  0  0
  2  4  1  0  0  0
  2  5  1  0  0  0
  3  6  2  0  0  0
  3 24  1  0  0  0
  4  7  2  0  0  0
  4  8  1  0  0  0
  5 11  2  0  0  0
  6  7  1  0  0  0
  6 25  1  0  0  0
  7 26  1  0  0  0
  8  9  1  0  0  0
  8 10  2  0  0  0
  9 11  1  0  0  0
  9 27  1  0  0  0
 11 12  1  0  0  0
 12 13  2  0  0  0
 12 17  1  0  0  0
 13 14  1  0  0  0
 13 28  1  0  0  0
 14 15  2  0  0  0
 14 29  1  0  0  0
 15 16  1  0  0  0
 15 18  1  0  0  0
 16 17  2  0  0  0
 16 30  1  0  0  0
 17 31  1  0  0  0
 18 19  1  0  0  0
 18 20  1  0  0  0
 18 21  1  0  0  0
 19 32  1  0  0  0
 20 33  1  0  0  0
 20 34  1  0  0  0
 20 35  1  0  0  0
 21 36  1  0  0  0
 21 37  1  0  0  0
 21 38  1  0  0  0
 22 23  1  0  0  0
 23 39  1  0  0  0
 23 40  1  0  0  0
 23 41  1  0  0  0
M  END
> <s_m_entry_id>
438

> <Name>
5h

> <IC50[nM]>
43

> <s_m_Source_Path>
/projects/mai/users/kmzp800_harry/pmx_colab/docking_jobs/tnks2

> <s_m_Source_File>
tnks2_lig.sdf

> <i_m_Source_File_Index>
24

> <s_m_job_name>
glide-dock_SP_tnks2_no_cons

> <r_i_docking_score>
-10.7126110404166

> <r_i_glide_gscore>
-10.7126110404166

> <r_i_glide_emodel>
-69.3447236941082

$$$$
8c
                    3D
 Schrodinger Suite 2021-4.
 43 46  0  0  1  0            999 V2000
  -14.3635  -14.9904  -27.7527 C   0  0  0  0  0  0
  -14.9586  -15.7650  -26.7338 C   0  0  0  0  0  0
  -14.4482  -13.5922  -27.7289 C   0  0  0  0  0  0
  -15.6497  -15.1166  -25.6833 C   0  0  0  0  0  0
  -14.8071  -17.1606  -26.7386 N   0  0  0  0  0  0
  -15.1574  -12.9522  -26.7041 C   0  0  0  0  0  0
  -15.7620  -13.7060  -25.6733 C   0  0  0  0  0  0
  -16.2267  -15.9828  -24.5991 C   0  0  0  0  0  0
  -16.0145  -17.2985  -24.7340 N   0  0  0  0  0  0
  -16.8482  -15.5381  -23.6439 O   0  0  0  0  0  0
  -15.2936  -17.8908  -25.7745 C   0  0  0  0  0  0
  -15.1314  -19.3714  -25.8148 C   0  0  0  0  0  0
  -14.8482  -19.9857  -27.0477 C   0  0  0  0  0  0
  -14.6820  -21.3693  -27.1208 C   0  0  0  0  0  0
  -14.7803  -22.1783  -25.9784 C   0  0  0  0  0  0
  -15.0717  -21.5731  -24.7380 C   0  0  0  0  0  0
  -15.2484  -20.1743  -24.6557 C   0  0  0  0  0  0
  -13.6501  -15.5727  -28.7386 F   0  0  0  0  0  0
  -15.2482  -11.6059  -26.7386 F   0  0  0  0  0  0
  -14.5454  -23.6746  -26.1121 C   0  0  0  0  0  0
  -15.5490  -24.3194  -27.0944 C   0  0  0  0  0  0
  -15.2390  -25.8021  -27.3433 C   0  0  0  0  0  0
  -13.8434  -25.9850  -27.8033 N   0  3  0  0  0  0
  -12.8381  -25.4520  -26.8566 C   0  0  0  0  0  0
  -13.0940  -23.9648  -26.5617 C   0  0  0  0  0  0
  -13.9775  -13.0049  -28.5040 H   0  0  0  0  0  0
  -16.2979  -13.2032  -24.8798 H   0  0  0  0  0  0
  -16.4516  -17.8996  -24.0469 H   0  0  0  0  0  0
  -14.7472  -19.4065  -27.9544 H   0  0  0  0  0  0
  -14.4482  -21.7969  -28.0702 H   0  0  0  0  0  0
  -15.1536  -22.1739  -23.8443 H   0  0  0  0  0  0
  -15.4719  -19.7315  -23.6963 H   0  0  0  0  0  0
  -14.6998  -24.1197  -25.1296 H   0  0  0  0  0  0
  -16.5652  -24.2115  -26.7123 H   0  0  0  0  0  0
  -15.5313  -23.8037  -28.0530 H   0  0  0  0  0  0
  -15.4050  -26.3726  -26.4312 H   0  0  0  0  0  0
  -15.9182  -26.2076  -28.0940 H   0  0  0  0  0  0
  -13.6688  -26.9708  -27.9425 H   0  0  0  0  0  0
  -12.8481  -26.0390  -25.9387 H   0  0  0  0  0  0
  -11.8434  -25.5790  -27.2853 H   0  0  0  0  0  0
  -12.8601  -23.3992  -27.4639 H   0  0  0  0  0  0
  -12.3976  -23.6138  -25.7990 H   0  0  0  0  0  0
  -13.7326  -25.5127  -28.6891 H   0  0  0  0  0  0
  1  2  2  0  0  0
  1  3  1  0  0  0
  1 18  1  0  0  0
  2  4  1  0  0  0
  2  5  1  0  0  0
  3  6  2  0  0  0
  3 26  1  0  0  0
  4  7  2  0  0  0
  4  8  1  0  0  0
  5 11  2  0  0  0
  6  7  1  0  0  0
  6 19  1  0  0  0
  7 27  1  0  0  0
  8  9  1  0  0  0
  8 10  2  0  0  0
  9 11  1  0  0  0
  9 28  1  0  0  0
 11 12  1  0  0  0
 12 13  2  0  0  0
 12 17  1  0  0  0
 13 14  1  0  0  0
 13 29  1  0  0  0
 14 15  2  0  0  0
 14 30  1  0  0  0
 15 16  1  0  0  0
 15 20  1  0  0  0
 16 17  2  0  0  0
 16 31  1  0  0  0
 17 32  1  0  0  0
 20 21  1  0  0  0
 20 25  1  0  0  0
 20 33  1  0  0  0
 21 22  1  0  0  0
 21 34  1  0  0  0
 21 35  1  0  0  0
 22 23  1  0  0  0
 22 36  1  0  0  0
 22 37  1  0  0  0
 23 24  1  0  0  0
 23 38  1  0  0  0
 23 43  1  0  0  0
 24 25  1  0  0  0
 24 39  1  0  0  0
 24 40  1  0  0  0
 25 41  1  0  0  0
 25 42  1  0  0  0
M  CHG  1  23   1
M  END
> <s_m_entry_id>
439

> <Name>
8c

> <IC50[nM]>
38

> <s_m_Source_Path>
/projects/mai/users/kmzp800_harry/pmx_colab/docking_jobs/tnks2

> <s_m_Source_File>
tnks2_lig.sdf

> <i_m_Source_File_Index>
25

> <s_m_job_name>
glide-dock_SP_tnks2_no_cons

> <r_i_docking_score>
-9.78438558756949

> <r_i_glide_gscore>
-9.78438558756949

> <r_i_glide_emodel>
-63.9453838193088

$$$$
5a
                    3D
 Schrodinger Suite 2021-4.
 37 39  0  0  1  0            999 V2000
  -14.4482  -14.7422  -27.6368 C   0  0  0  0  0  0
  -15.0601  -15.5738  -26.6779 C   0  0  0  0  0  0
  -14.5254  -13.3427  -27.5141 C   0  0  0  0  0  0
  -15.8088  -14.9951  -25.6262 C   0  0  0  0  0  0
  -14.8482  -16.9600  -26.7386 N   0  0  0  0  0  0
  -15.2482  -12.7727  -26.4498 C   0  0  0  0  0  0
  -15.9122  -13.5928  -25.5151 C   0  0  0  0  0  0
  -16.4482  -15.9278  -24.6423 C   0  0  0  0  0  0
  -16.1019  -17.2085  -24.7669 N   0  0  0  0  0  0
  -17.2342  -15.5727  -23.7771 O   0  0  0  0  0  0
  -15.3299  -17.7320  -25.8050 C   0  0  0  0  0  0
  -15.1327  -19.1979  -25.8515 C   0  0  0  0  0  0
  -14.8482  -19.8308  -27.0744 C   0  0  0  0  0  0
  -14.6602  -21.2163  -27.1224 C   0  0  0  0  0  0
  -14.7303  -21.9894  -25.9477 C   0  0  0  0  0  0
  -15.0527  -21.3557  -24.7287 C   0  0  0  0  0  0
  -15.2482  -19.9685  -24.6767 C   0  0  0  0  0  0
  -14.4271  -23.4782  -25.9396 C   0  0  0  0  0  0
  -15.5804  -24.1814  -25.5386 O   0  0  0  0  0  0
  -13.2482  -23.7240  -24.9795 C   0  0  0  0  0  0
  -14.0760  -24.0860  -27.3047 C   0  0  0  0  0  0
  -13.8749  -15.1774  -28.4424 H   0  0  0  0  0  0
  -14.0283  -12.7021  -28.2294 H   0  0  0  0  0  0
  -15.2918  -11.6984  -26.3619 H   0  0  0  0  0  0
  -16.4737  -13.1465  -24.7061 H   0  0  0  0  0  0
  -16.5424  -17.8558  -24.1255 H   0  0  0  0  0  0
  -14.7606  -19.2602  -27.9874 H   0  0  0  0  0  0
  -14.4235  -21.6476  -28.0731 H   0  0  0  0  0  0
  -15.1293  -21.9261  -23.8153 H   0  0  0  0  0  0
  -15.4824  -19.5153  -23.7248 H   0  0  0  0  0  0
  -15.8225  -23.8945  -24.6709 H   0  0  0  0  0  0
  -12.4252  -23.0521  -25.2174 H   0  0  0  0  0  0
  -12.8482  -24.7357  -25.0518 H   0  0  0  0  0  0
  -13.5158  -23.5505  -23.9386 H   0  0  0  0  0  0
  -13.1786  -23.6304  -27.7240 H   0  0  0  0  0  0
  -13.8804  -25.1559  -27.2208 H   0  0  0  0  0  0
  -14.8935  -23.9698  -28.0160 H   0  0  0  0  0  0
  1  2  2  0  0  0
  1  3  1  0  0  0
  1 22  1  0  0  0
  2  4  1  0  0  0
  2  5  1  0  0  0
  3  6  2  0  0  0
  3 23  1  0  0  0
  4  7  2  0  0  0
  4  8  1  0  0  0
  5 11  2  0  0  0
  6  7  1  0  0  0
  6 24  1  0  0  0
  7 25  1  0  0  0
  8  9  1  0  0  0
  8 10  2  0  0  0
  9 11  1  0  0  0
  9 26  1  0  0  0
 11 12  1  0  0  0
 12 13  2  0  0  0
 12 17  1  0  0  0
 13 14  1  0  0  0
 13 27  1  0  0  0
 14 15  2  0  0  0
 14 28  1  0  0  0
 15 16  1  0  0  0
 15 18  1  0  0  0
 16 17  2  0  0  0
 16 29  1  0  0  0
 17 30  1  0  0  0
 18 19  1  0  0  0
 18 20  1  0  0  0
 18 21  1  0  0  0
 19 31  1  0  0  0
 20 32  1  0  0  0
 20 33  1  0  0  0
 20 34  1  0  0  0
 21 35  1  0  0  0
 21 36  1  0  0  0
 21 37  1  0  0  0
M  END
> <s_m_entry_id>
440

> <Name>
5a

> <IC50[nM]>
13

> <s_m_Source_Path>
/projects/mai/users/kmzp800_harry/pmx_colab/docking_jobs/tnks2

> <s_m_Source_File>
tnks2_lig.sdf

> <i_m_Source_File_Index>
26

> <s_m_job_name>
glide-dock_SP_tnks2_no_cons

> <r_i_docking_score>
-10.5329733422287

> <r_i_glide_gscore>
-10.5329733422287

> <r_i_glide_emodel>
-65.7041614979281

$$$$
5d
                    3D
 Schrodinger Suite 2021-4.
 37 39  0  0  1  0            999 V2000
  -14.3911  -15.0657  -27.7795 C   0  0  0  0  0  0
  -14.9695  -15.8165  -26.7386 C   0  0  0  0  0  0
  -14.4483  -13.6628  -27.7549 C   0  0  0  0  0  0
  -15.6482  -15.1627  -25.6855 C   0  0  0  0  0  0
  -14.8049  -17.2043  -26.7418 N   0  0  0  0  0  0
  -15.1392  -13.0113  -26.7178 C   0  0  0  0  0  0
  -15.7462  -13.7533  -25.6806 C   0  0  0  0  0  0
  -15.2215  -11.6639  -26.7386 F   0  0  0  0  0  0
  -16.2160  -16.0231  -24.5931 C   0  0  0  0  0  0
  -15.9751  -17.3366  -24.7133 N   0  0  0  0  0  0
  -16.8482  -15.5727  -23.6463 O   0  0  0  0  0  0
  -15.2484  -17.9239  -25.7549 C   0  0  0  0  0  0
  -14.9963  -19.3834  -25.7604 C   0  0  0  0  0  0
  -14.8482  -20.0644  -26.9853 C   0  0  0  0  0  0
  -14.5204  -21.4253  -26.9975 C   0  0  0  0  0  0
  -14.3021  -22.1172  -25.7952 C   0  0  0  0  0  0
  -14.4907  -21.4444  -24.5665 C   0  0  0  0  0  0
  -14.8482  -20.0860  -24.5484 C   0  0  0  0  0  0
  -13.9876  -23.6005  -25.8228 C   0  0  0  0  0  0
  -13.2649  -23.9727  -24.6655 O   0  0  0  0  0  0
  -13.0593  -24.0622  -26.9604 C   0  0  0  0  0  0
  -15.3435  -24.3283  -25.9386 C   0  0  0  0  0  0
  -13.8669  -15.5659  -28.5807 H   0  0  0  0  0  0
  -13.9862  -13.0816  -28.5400 H   0  0  0  0  0  0
  -16.2684  -13.2411  -24.8844 H   0  0  0  0  0  0
  -16.3797  -17.9402  -24.0095 H   0  0  0  0  0  0
  -14.9354  -19.5463  -27.9285 H   0  0  0  0  0  0
  -14.4265  -21.9292  -27.9386 H   0  0  0  0  0  0
  -14.3733  -21.9657  -23.6273 H   0  0  0  0  0  0
  -14.9848  -19.5928  -23.5991 H   0  0  0  0  0  0
  -12.4011  -23.5885  -24.7153 H   0  0  0  0  0  0
  -13.4998  -23.9040  -27.9386 H   0  0  0  0  0  0
  -12.8675  -25.1339  -26.8871 H   0  0  0  0  0  0
  -12.0882  -23.5727  -26.9288 H   0  0  0  0  0  0
  -15.9160  -23.9589  -26.7901 H   0  0  0  0  0  0
  -15.2482  -25.4015  -26.0855 H   0  0  0  0  0  0
  -15.9498  -24.1701  -25.0463 H   0  0  0  0  0  0
  1  2  2  0  0  0
  1  3  1  0  0  0
  1 23  1  0  0  0
  2  4  1  0  0  0
  2  5  1  0  0  0
  3  6  2  0  0  0
  3 24  1  0  0  0
  4  7  2  0  0  0
  4  9  1  0  0  0
  5 12  2  0  0  0
  6  7  1  0  0  0
  6  8  1  0  0  0
  7 25  1  0  0  0
  9 10  1  0  0  0
  9 11  2  0  0  0
 10 12  1  0  0  0
 10 26  1  0  0  0
 12 13  1  0  0  0
 13 14  2  0  0  0
 13 18  1  0  0  0
 14 15  1  0  0  0
 14 27  1  0  0  0
 15 16  2  0  0  0
 15 28  1  0  0  0
 16 17  1  0  0  0
 16 19  1  0  0  0
 17 18  2  0  0  0
 17 29  1  0  0  0
 18 30  1  0  0  0
 19 20  1  0  0  0
 19 21  1  0  0  0
 19 22  1  0  0  0
 20 31  1  0  0  0
 21 32  1  0  0  0
 21 33  1  0  0  0
 21 34  1  0  0  0
 22 35  1  0  0  0
 22 36  1  0  0  0
 22 37  1  0  0  0
M  END
> <s_m_entry_id>
441

> <Name>
5d

> <IC50[nM]>
10.5

> <s_m_Source_Path>
/projects/mai/users/kmzp800_harry/pmx_colab/docking_jobs/tnks2

> <s_m_Source_File>
tnks2_lig.sdf

> <i_m_Source_File_Index>
27

> <s_m_job_name>
glide-dock_SP_tnks2_no_cons

> <r_i_docking_score>
-10.5180669198369

> <r_i_glide_gscore>
-10.5180669198369

> <r_i_glide_emodel>
-63.8729067423182

$$$$
