3a
                    3D
 Schrodinger Suite 2021-4.
 39 41  0  0  1  0            999 V2000
  -14.8482  -16.9947  -26.7446 N   0  0  0  0  0  0
  -15.3625  -17.7782  -25.8430 C   0  0  0  0  0  0
  -16.1267  -17.2456  -24.8125 N   0  0  0  0  0  0
  -16.3702  -15.9478  -24.6072 C   0  0  0  0  0  0
  -17.0506  -15.5727  -23.6555 O   0  0  0  0  0  0
  -15.1997  -19.2558  -25.9307 C   0  0  0  0  0  0
  -14.7809  -19.8411  -27.1385 C   0  0  0  0  0  0
  -14.5621  -21.2189  -27.2177 C   0  0  0  0  0  0
  -14.7755  -22.0595  -26.1075 C   0  0  0  0  0  0
  -15.2334  -21.4701  -24.9079 C   0  0  0  0  0  0
  -15.4428  -20.0841  -24.8165 C   0  0  0  0  0  0
  -14.4793  -23.5691  -26.1585 C   0  0  0  0  0  0
  -15.0311  -15.6040  -26.6756 C   0  0  0  0  0  0
  -15.7573  -15.0206  -25.6141 C   0  0  0  0  0  0
  -15.8809  -13.6204  -25.5198 C   0  0  0  0  0  0
  -15.2482  -12.8061  -26.4815 C   0  0  0  0  0  0
  -14.5361  -13.3844  -27.5429 C   0  0  0  0  0  0
  -14.4480  -14.7792  -27.6524 C   0  0  0  0  0  0
  -13.2255  -23.8300  -25.2983 C   0  0  0  0  0  0
  -14.1585  -24.0815  -27.5648 C   0  0  0  0  0  0
  -15.7287  -24.3413  -25.7014 C   0  0  0  0  0  0
  -16.5703  -17.8835  -24.1633 H   0  0  0  0  0  0
  -14.5926  -19.2303  -28.0130 H   0  0  0  0  0  0
  -14.1978  -21.5727  -28.1577 H   0  0  0  0  0  0
  -15.3998  -22.0826  -24.0327 H   0  0  0  0  0  0
  -15.7745  -19.6763  -23.8733 H   0  0  0  0  0  0
  -16.4312  -13.1696  -24.7036 H   0  0  0  0  0  0
  -15.3174  -11.7274  -26.4115 H   0  0  0  0  0  0
  -14.0631  -12.7498  -28.2758 H   0  0  0  0  0  0
  -13.8954  -15.2196  -28.4688 H   0  0  0  0  0  0
  -12.8481  -24.8433  -25.3785 H   0  0  0  0  0  0
  -13.3945  -23.6108  -24.2445 H   0  0  0  0  0  0
  -12.4117  -23.1852  -25.6277 H   0  0  0  0  0  0
  -14.9839  -23.9066  -28.2543 H   0  0  0  0  0  0
  -13.2586  -23.6002  -27.9375 H   0  0  0  0  0  0
  -13.9728  -25.1540  -27.5639 H   0  0  0  0  0  0
  -16.5938  -24.0171  -26.2810 H   0  0  0  0  0  0
  -15.6479  -25.4105  -25.8898 H   0  0  0  0  0  0
  -15.9534  -24.1877  -24.6478 H   0  0  0  0  0  0
  1  2  2  0  0  0
  1 13  1  0  0  0
  2  3  1  0  0  0
  2  6  1  0  0  0
  3  4  1  0  0  0
  3 22  1  0  0  0
  4  5  2  0  0  0
  4 14  1  0  0  0
  6  7  2  0  0  0
  6 11  1  0  0  0
  7  8  1  0  0  0
  7 23  1  0  0  0
  8  9  2  0  0  0
  8 24  1  0  0  0
  9 10  1  0  0  0
  9 12  1  0  0  0
 10 11  2  0  0  0
 10 25  1  0  0  0
 11 26  1  0  0  0
 12 19  1  0  0  0
 12 20  1  0  0  0
 12 21  1  0  0  0
 13 14  2  0  0  0
 13 18  1  0  0  0
 14 15  1  0  0  0
 15 16  2  0  0  0
 15 27  1  0  0  0
 16 17  1  0  0  0
 16 28  1  0  0  0
 17 18  2  0  0  0
 17 29  1  0  0  0
 18 30  1  0  0  0
 19 31  1  0  0  0
 19 32  1  0  0  0
 19 33  1  0  0  0
 20 34  1  0  0  0
 20 35  1  0  0  0
 20 36  1  0  0  0
 21 37  1  0  0  0
 21 38  1  0  0  0
 21 39  1  0  0  0
M  END
> <s_m_entry_id>
497

> <Name>
3a

> <IC50[nM]>
8.7

> <s_m_Source_Path>
/projects/mai/users/kmzp800_harry/pmx_colab/docking_jobs/tnks2

> <s_m_Source_File>
tnks2_lig.sdf

> <i_m_Source_File_Index>
8

> <s_m_job_name>
glide-dock_SP_tnks_mcs_fallabck

> <r_i_docking_score>
-10.5050210324206

> <r_i_glide_gscore>
-10.5050210324206

> <r_i_glide_emodel>
-61.2002246464473

$$$$
5f
                    3D
 Schrodinger Suite 2021-4.
 37 39  0  0  1  0            999 V2000
  -14.4476  -14.7713  -27.6597 C   0  0  0  0  0  0
  -15.0344  -15.5980  -26.6838 C   0  0  0  0  0  0
  -14.5364  -13.3750  -27.5456 C   0  0  0  0  0  0
  -15.7547  -15.0164  -25.6134 C   0  0  0  0  0  0
  -14.8483  -16.9877  -26.7612 N   0  0  0  0  0  0
  -15.2481  -12.8019  -26.4848 C   0  0  0  0  0  0
  -15.8749  -13.6149  -25.5200 C   0  0  0  0  0  0
  -16.3711  -15.9445  -24.6101 C   0  0  0  0  0  0
  -16.1179  -17.2409  -24.8115 N   0  0  0  0  0  0
  -17.0519  -15.5725  -23.6610 O   0  0  0  0  0  0
  -15.3647  -17.7694  -25.8591 C   0  0  0  0  0  0
  -15.1949  -19.2484  -25.9389 C   0  0  0  0  0  0
  -14.7808  -19.8349  -27.1454 C   0  0  0  0  0  0
  -14.5441  -21.2095  -27.2172 C   0  0  0  0  0  0
  -14.7406  -22.0466  -26.1037 C   0  0  0  0  0  0
  -15.2084  -21.4663  -24.9051 C   0  0  0  0  0  0
  -15.4332  -20.0803  -24.8222 C   0  0  0  0  0  0
  -14.4472  -23.5413  -26.1840 C   0  0  0  0  0  0
  -14.1694  -23.9711  -27.5146 O   0  0  0  0  0  0
  -13.1758  -23.8328  -25.3693 C   0  0  0  0  0  0
  -15.6817  -24.3238  -25.6946 C   0  0  0  0  0  0
  -13.7511  -15.3183  -28.6845 F   0  0  0  0  0  0
  -14.0642  -12.7413  -28.2794 H   0  0  0  0  0  0
  -15.3130  -11.7298  -26.4091 H   0  0  0  0  0  0
  -16.4296  -13.1654  -24.7074 H   0  0  0  0  0  0
  -16.5419  -17.8925  -24.1691 H   0  0  0  0  0  0
  -14.5822  -19.2281  -28.0206 H   0  0  0  0  0  0
  -14.1682  -21.5724  -28.1524 H   0  0  0  0  0  0
  -15.3869  -22.0864  -24.0363 H   0  0  0  0  0  0
  -15.7727  -19.6778  -23.8783 H   0  0  0  0  0  0
  -13.9544  -24.8938  -27.4942 H   0  0  0  0  0  0
  -12.3527  -23.2284  -25.7458 H   0  0  0  0  0  0
  -12.8488  -24.8701  -25.3945 H   0  0  0  0  0  0
  -13.2869  -23.5655  -24.3222 H   0  0  0  0  0  0
  -16.5610  -24.0136  -26.2563 H   0  0  0  0  0  0
  -15.5740  -25.3933  -25.8774 H   0  0  0  0  0  0
  -15.8992  -24.1590  -24.6380 H   0  0  0  0  0  0
  1  2  2  0  0  0
  1  3  1  0  0  0
  1 22  1  0  0  0
  2  4  1  0  0  0
  2  5  1  0  0  0
  3  6  2  0  0  0
  3 23  1  0  0  0
  4  7  2  0  0  0
  4  8  1  0  0  0
  5 11  2  0  0  0
  6  7  1  0  0  0
  6 24  1  0  0  0
  7 25  1  0  0  0
  8  9  1  0  0  0
  8 10  2  0  0  0
  9 11  1  0  0  0
  9 26  1  0  0  0
 11 12  1  0  0  0
 12 13  2  0  0  0
 12 17  1  0  0  0
 13 14  1  0  0  0
 13 27  1  0  0  0
 14 15  2  0  0  0
 14 28  1  0  0  0
 15 16  1  0  0  0
 15 18  1  0  0  0
 16 17  2  0  0  0
 16 29  1  0  0  0
 17 30  1  0  0  0
 18 19  1  0  0  0
 18 20  1  0  0  0
 18 21  1  0  0  0
 19 31  1  0  0  0
 20 32  1  0  0  0
 20 33  1  0  0  0
 20 34  1  0  0  0
 21 35  1  0  0  0
 21 36  1  0  0  0
 21 37  1  0  0  0
M  END
> <s_m_entry_id>
498

> <Name>
5f

> <IC50[nM]>
30

> <s_m_Source_Path>
/projects/mai/users/kmzp800_harry/pmx_colab/docking_jobs/tnks2

> <s_m_Source_File>
tnks2_lig.sdf

> <i_m_Source_File_Index>
3

> <s_m_job_name>
glide-dock_SP_tnks_mcs_fallabck

> <r_i_docking_score>
-10.3393988476224

> <r_i_glide_gscore>
-10.3393988476224

> <r_i_glide_emodel>
-56.4965842160361

$$$$
5i
                    3D
 Schrodinger Suite 2021-4.
 40 42  0  0  1  0            999 V2000
  -14.4607  -14.7554  -27.6612 C   0  0  0  0  0  0
  -15.0434  -15.5957  -26.6830 C   0  0  0  0  0  0
  -14.5508  -13.3643  -27.5541 C   0  0  0  0  0  0
  -15.7670  -15.0162  -25.6145 C   0  0  0  0  0  0
  -14.8482  -16.9868  -26.7458 N   0  0  0  0  0  0
  -15.2587  -12.7995  -26.4921 C   0  0  0  0  0  0
  -15.8800  -13.6135  -25.5199 C   0  0  0  0  0  0
  -16.3739  -15.9464  -24.6034 C   0  0  0  0  0  0
  -16.1304  -17.2435  -24.8121 N   0  0  0  0  0  0
  -17.0519  -15.5745  -23.6522 O   0  0  0  0  0  0
  -15.3662  -17.7725  -25.8475 C   0  0  0  0  0  0
  -15.1968  -19.2477  -25.9371 C   0  0  0  0  0  0
  -15.4332  -20.0786  -24.8226 C   0  0  0  0  0  0
  -15.2138  -21.4626  -24.9051 C   0  0  0  0  0  0
  -14.7615  -22.0417  -26.1077 C   0  0  0  0  0  0
  -14.5531  -21.2079  -27.2237 C   0  0  0  0  0  0
  -14.7801  -19.8329  -27.1442 C   0  0  0  0  0  0
  -14.4700  -23.5336  -26.1821 C   0  0  0  0  0  0
  -14.1757  -23.9629  -27.5029 O   0  0  0  0  0  0
  -13.1995  -23.8428  -25.3742 C   0  0  0  0  0  0
  -15.7061  -24.3314  -25.7075 C   0  0  0  0  0  0
  -13.7089  -15.3357  -28.8311 C   0  0  0  0  0  0
  -14.0888  -12.7218  -28.2921 H   0  0  0  0  0  0
  -15.3170  -11.7242  -26.4183 H   0  0  0  0  0  0
  -16.4191  -13.1636  -24.6977 H   0  0  0  0  0  0
  -16.5814  -17.8892  -24.1753 H   0  0  0  0  0  0
  -15.7515  -19.6661  -23.8765 H   0  0  0  0  0  0
  -15.3672  -22.0643  -24.0216 H   0  0  0  0  0  0
  -14.1774  -21.5713  -28.1609 H   0  0  0  0  0  0
  -14.5880  -19.2270  -28.0189 H   0  0  0  0  0  0
  -14.9481  -23.8485  -28.0337 H   0  0  0  0  0  0
  -12.3882  -23.1792  -25.6753 H   0  0  0  0  0  0
  -12.8413  -24.8591  -25.5372 H   0  0  0  0  0  0
  -13.3483  -23.7020  -24.3041 H   0  0  0  0  0  0
  -16.5872  -24.0028  -26.2607 H   0  0  0  0  0  0
  -15.5978  -25.3916  -25.9391 H   0  0  0  0  0  0
  -15.9037  -24.2237  -24.6425 H   0  0  0  0  0  0
  -13.7107  -14.6548  -29.6812 H   0  0  0  0  0  0
  -12.6844  -15.5719  -28.5770 H   0  0  0  0  0  0
  -14.1904  -16.2590  -29.1384 H   0  0  0  0  0  0
  1  2  2  0  0  0
  1  3  1  0  0  0
  1 22  1  0  0  0
  2  4  1  0  0  0
  2  5  1  0  0  0
  3  6  2  0  0  0
  3 23  1  0  0  0
  4  7  2  0  0  0
  4  8  1  0  0  0
  5 11  2  0  0  0
  6  7  1  0  0  0
  6 24  1  0  0  0
  7 25  1  0  0  0
  8  9  1  0  0  0
  8 10  2  0  0  0
  9 11  1  0  0  0
  9 26  1  0  0  0
 11 12  1  0  0  0
 12 13  2  0  0  0
 12 17  1  0  0  0
 13 14  1  0  0  0
 13 27  1  0  0  0
 14 15  2  0  0  0
 14 28  1  0  0  0
 15 16  1  0  0  0
 15 18  1  0  0  0
 16 17  2  0  0  0
 16 29  1  0  0  0
 17 30  1  0  0  0
 18 19  1  0  0  0
 18 20  1  0  0  0
 18 21  1  0  0  0
 19 31  1  0  0  0
 20 32  1  0  0  0
 20 33  1  0  0  0
 20 34  1  0  0  0
 21 35  1  0  0  0
 21 36  1  0  0  0
 21 37  1  0  0  0
 22 38  1  0  0  0
 22 39  1  0  0  0
 22 40  1  0  0  0
M  END
> <s_m_entry_id>
499

> <Name>
5i

> <IC50[nM]>
1.4

> <s_m_Source_Path>
/projects/mai/users/kmzp800_harry/pmx_colab/docking_jobs/tnks2

> <s_m_Source_File>
tnks2_lig.sdf

> <i_m_Source_File_Index>
21

> <s_m_job_name>
glide-dock_SP_tnks_mcs_fallabck

> <r_i_docking_score>
-10.2533784518301

> <r_i_glide_gscore>
-10.2533784518301

> <r_i_glide_emodel>
-42.0755797482006

$$$$
5l
                    3D
 Schrodinger Suite 2021-4.
 37 39  0  0  1  0            999 V2000
  -15.1921  -19.2516  -25.9386 C   0  0  0  0  0  0
  -14.7764  -19.8442  -27.1497 C   0  0  0  0  0  0
  -15.4359  -20.0811  -24.8215 C   0  0  0  0  0  0
  -14.5433  -21.2151  -27.2197 C   0  0  0  0  0  0
  -15.2103  -21.4659  -24.9054 C   0  0  0  0  0  0
  -14.8472  -16.9954  -26.7589 N   0  0  0  0  0  0
  -14.7459  -22.0450  -26.1071 C   0  0  0  0  0  0
  -14.4514  -23.5321  -26.1784 C   0  0  0  0  0  0
  -16.3601  -15.9399  -24.6113 C   0  0  0  0  0  0
  -16.1164  -17.2352  -24.8117 N   0  0  0  0  0  0
  -15.3635  -17.7731  -25.8540 C   0  0  0  0  0  0
  -17.0654  -15.5723  -23.6781 O   0  0  0  0  0  0
  -13.1759  -23.8211  -25.3705 C   0  0  0  0  0  0
  -14.1795  -23.9717  -27.5101 O   0  0  0  0  0  0
  -15.6849  -24.3111  -25.6960 C   0  0  0  0  0  0
  -15.0350  -15.6084  -26.6932 C   0  0  0  0  0  0
  -15.7381  -15.0199  -25.6190 C   0  0  0  0  0  0
  -15.8233  -13.6149  -25.5280 C   0  0  0  0  0  0
  -15.2202  -12.8020  -26.4974 C   0  0  0  0  0  0
  -14.5319  -13.3806  -27.5705 C   0  0  0  0  0  0
  -14.4497  -14.7786  -27.6753 C   0  0  0  0  0  0
  -13.7672  -15.3215  -28.7112 F   0  0  0  0  0  0
  -16.4471  -13.0253  -24.4970 F   0  0  0  0  0  0
  -14.5888  -19.2467  -28.0281 H   0  0  0  0  0  0
  -15.7817  -19.6740  -23.8878 H   0  0  0  0  0  0
  -14.1798  -21.5721  -28.1603 H   0  0  0  0  0  0
  -15.3751  -22.0765  -24.0338 H   0  0  0  0  0  0
  -16.5549  -17.8757  -24.1611 H   0  0  0  0  0  0
  -12.3598  -23.1996  -25.7401 H   0  0  0  0  0  0
  -12.8482  -24.8588  -25.4385 H   0  0  0  0  0  0
  -13.3031  -23.5809  -24.3146 H   0  0  0  0  0  0
  -13.9695  -24.8907  -27.4909 H   0  0  0  0  0  0
  -16.5568  -24.0005  -26.2803 H   0  0  0  0  0  0
  -15.5728  -25.3751  -25.9377 H   0  0  0  0  0  0
  -15.9091  -24.1796  -24.6387 H   0  0  0  0  0  0
  -15.2654  -11.7257  -26.4263 H   0  0  0  0  0  0
  -14.0659  -12.7616  -28.3189 H   0  0  0  0  0  0
  1  2  2  0  0  0
  1  3  1  0  0  0
  1 11  1  0  0  0
  2  4  1  0  0  0
  2 24  1  0  0  0
  3  5  2  0  0  0
  3 25  1  0  0  0
  4  7  2  0  0  0
  4 26  1  0  0  0
  5  7  1  0  0  0
  5 27  1  0  0  0
  6 11  2  0  0  0
  6 16  1  0  0  0
  7  8  1  0  0  0
  8 13  1  0  0  0
  8 14  1  0  0  0
  8 15  1  0  0  0
  9 10  1  0  0  0
  9 12  2  0  0  0
  9 17  1  0  0  0
 10 11  1  0  0  0
 10 28  1  0  0  0
 13 29  1  0  0  0
 13 30  1  0  0  0
 13 31  1  0  0  0
 14 32  1  0  0  0
 15 33  1  0  0  0
 15 34  1  0  0  0
 15 35  1  0  0  0
 16 17  2  0  0  0
 16 21  1  0  0  0
 17 18  1  0  0  0
 18 19  2  0  0  0
 18 23  1  0  0  0
 19 20  1  0  0  0
 19 36  1  0  0  0
 20 21  2  0  0  0
 20 37  1  0  0  0
 21 22  1  0  0  0
M  END
> <s_m_entry_id>
500

> <Name>
5l

> <IC50[nM]>
40

> <s_m_Source_Path>
/projects/mai/users/kmzp800_harry/pmx_colab/docking_jobs/tnks2

> <s_m_Source_File>
tnks2_lig.sdf

> <i_m_Source_File_Index>
22

> <s_m_job_name>
glide-dock_SP_tnks_mcs_fallabck

> <r_i_docking_score>
-10.2211299940814

> <r_i_glide_gscore>
-10.2211299940814

> <r_i_glide_emodel>
-52.5130513074557

$$$$
5a
                    3D
 Schrodinger Suite 2021-4.
 37 39  0  0  1  0            999 V2000
  -14.4479  -14.7897  -27.6638 C   0  0  0  0  0  0
  -15.0369  -15.6069  -26.6822 C   0  0  0  0  0  0
  -14.5304  -13.3886  -27.5568 C   0  0  0  0  0  0
  -15.7616  -15.0202  -25.6171 C   0  0  0  0  0  0
  -14.8480  -16.9952  -26.7536 N   0  0  0  0  0  0
  -15.2434  -12.8064  -26.4947 C   0  0  0  0  0  0
  -15.8753  -13.6191  -25.5309 C   0  0  0  0  0  0
  -16.3767  -15.9412  -24.6148 C   0  0  0  0  0  0
  -16.1273  -17.2395  -24.8130 N   0  0  0  0  0  0
  -17.0671  -15.5727  -23.6709 O   0  0  0  0  0  0
  -15.3652  -17.7727  -25.8490 C   0  0  0  0  0  0
  -15.2062  -19.2508  -25.9302 C   0  0  0  0  0  0
  -14.7766  -19.8341  -27.1374 C   0  0  0  0  0  0
  -14.5457  -21.2054  -27.2186 C   0  0  0  0  0  0
  -14.7536  -22.0440  -26.1076 C   0  0  0  0  0  0
  -15.2290  -21.4649  -24.9088 C   0  0  0  0  0  0
  -15.4499  -20.0795  -24.8170 C   0  0  0  0  0  0
  -14.4539  -23.5357  -26.1745 C   0  0  0  0  0  0
  -14.1638  -23.9694  -27.5002 O   0  0  0  0  0  0
  -13.1774  -23.8215  -25.3580 C   0  0  0  0  0  0
  -15.6978  -24.3163  -25.7068 C   0  0  0  0  0  0
  -13.8980  -15.2315  -28.4804 H   0  0  0  0  0  0
  -14.0612  -12.7573  -28.2959 H   0  0  0  0  0  0
  -15.3084  -11.7300  -26.4300 H   0  0  0  0  0  0
  -16.4272  -13.1641  -24.7231 H   0  0  0  0  0  0
  -16.5572  -17.8839  -24.1700 H   0  0  0  0  0  0
  -14.5809  -19.2296  -28.0056 H   0  0  0  0  0  0
  -14.1641  -21.5730  -28.1535 H   0  0  0  0  0  0
  -15.4022  -22.0765  -24.0363 H   0  0  0  0  0  0
  -15.7971  -19.6743  -23.8818 H   0  0  0  0  0  0
  -13.9584  -24.8855  -27.4814 H   0  0  0  0  0  0
  -12.3562  -23.2091  -25.7271 H   0  0  0  0  0  0
  -12.8466  -24.8548  -25.3906 H   0  0  0  0  0  0
  -13.3202  -23.5565  -24.3138 H   0  0  0  0  0  0
  -16.5643  -24.0292  -26.3038 H   0  0  0  0  0  0
  -15.5927  -25.3850  -25.8658 H   0  0  0  0  0  0
  -15.9357  -24.1318  -24.6665 H   0  0  0  0  0  0
  1  2  2  0  0  0
  1  3  1  0  0  0
  1 22  1  0  0  0
  2  4  1  0  0  0
  2  5  1  0  0  0
  3  6  2  0  0  0
  3 23  1  0  0  0
  4  7  2  0  0  0
  4  8  1  0  0  0
  5 11  2  0  0  0
  6  7  1  0  0  0
  6 24  1  0  0  0
  7 25  1  0  0  0
  8  9  1  0  0  0
  8 10  2  0  0  0
  9 11  1  0  0  0
  9 26  1  0  0  0
 11 12  1  0  0  0
 12 13  2  0  0  0
 12 17  1  0  0  0
 13 14  1  0  0  0
 13 27  1  0  0  0
 14 15  2  0  0  0
 14 28  1  0  0  0
 15 16  1  0  0  0
 15 18  1  0  0  0
 16 17  2  0  0  0
 16 29  1  0  0  0
 17 30  1  0  0  0
 18 19  1  0  0  0
 18 20  1  0  0  0
 18 21  1  0  0  0
 19 31  1  0  0  0
 20 32  1  0  0  0
 20 33  1  0  0  0
 20 34  1  0  0  0
 21 35  1  0  0  0
 21 36  1  0  0  0
 21 37  1  0  0  0
M  END
> <s_m_entry_id>
501

> <Name>
5a

> <IC50[nM]>
13

> <s_m_Source_Path>
/projects/mai/users/kmzp800_harry/pmx_colab/docking_jobs/tnks2

> <s_m_Source_File>
tnks2_lig.sdf

> <i_m_Source_File_Index>
26

> <s_m_job_name>
glide-dock_SP_tnks_mcs_fallabck

> <r_i_docking_score>
-10.1861414453394

> <r_i_glide_gscore>
-10.1861414453394

> <r_i_glide_emodel>
-55.9150992316866

$$$$
8e
                    3D
 Schrodinger Suite 2021-4.
 46 49  0  0  1  0            999 V2000
  -14.4392  -14.8166  -27.6843 C   0  0  0  0  0  0
  -15.0363  -15.6231  -26.6963 C   0  0  0  0  0  0
  -14.5250  -13.4258  -27.5984 C   0  0  0  0  0  0
  -15.7711  -15.0270  -25.6443 C   0  0  0  0  0  0
  -14.8484  -17.0095  -26.7529 N   0  0  0  0  0  0
  -15.2485  -12.8401  -26.5488 C   0  0  0  0  0  0
  -15.8874  -13.6246  -25.5781 C   0  0  0  0  0  0
  -16.3852  -15.9436  -24.6241 C   0  0  0  0  0  0
  -16.1219  -17.2411  -24.8126 N   0  0  0  0  0  0
  -17.0856  -15.5686  -23.6887 O   0  0  0  0  0  0
  -15.3647  -17.7855  -25.8516 C   0  0  0  0  0  0
  -15.1953  -19.2587  -25.9357 C   0  0  0  0  0  0
  -15.4292  -20.0915  -24.8249 C   0  0  0  0  0  0
  -15.2139  -21.4793  -24.9202 C   0  0  0  0  0  0
  -14.7591  -22.0532  -26.1219 C   0  0  0  0  0  0
  -14.5412  -21.2133  -27.2295 C   0  0  0  0  0  0
  -14.7685  -19.8394  -27.1413 C   0  0  0  0  0  0
  -13.7325  -15.3728  -28.6952 F   0  0  0  0  0  0
  -15.3234  -11.5093  -26.4857 F   0  0  0  0  0  0
  -14.4855  -23.5466  -26.2134 C   0  0  1  0  0  0
  -15.4980  -24.2396  -27.1385 C   0  0  0  0  0  0
  -15.1812  -25.7303  -27.2974 C   0  0  0  0  0  0
  -13.8034  -25.9213  -27.8051 N   0  3  1  0  0  0
  -12.8009  -25.3363  -26.8880 C   0  0  0  0  0  0
  -13.0513  -23.8325  -26.7008 C   0  0  0  0  0  0
  -13.5186  -27.3432  -28.0686 C   0  0  0  0  0  0
  -14.0520  -12.8012  -28.3387 H   0  0  0  0  0  0
  -16.4441  -13.1432  -24.7848 H   0  0  0  0  0  0
  -16.5583  -17.8870  -24.1726 H   0  0  0  0  0  0
  -15.7614  -19.6805  -23.8833 H   0  0  0  0  0  0
  -15.3896  -22.1033  -24.0570 H   0  0  0  0  0  0
  -14.1780  -21.5729  -28.1706 H   0  0  0  0  0  0
  -14.5727  -19.2334  -28.0108 H   0  0  0  0  0  0
  -14.5932  -23.9617  -25.2082 H   0  0  0  0  0  0
  -15.4890  -23.7675  -28.1206 H   0  0  0  0  0  0
  -16.5075  -24.1150  -26.7480 H   0  0  0  0  0  0
  -15.8914  -26.1844  -27.9868 H   0  0  0  0  0  0
  -15.2978  -26.2424  -26.3398 H   0  0  0  0  0  0
  -11.7974  -25.4947  -27.2755 H   0  0  0  0  0  0
  -12.8482  -25.8640  -25.9386 H   0  0  0  0  0  0
  -12.3315  -23.4155  -25.9972 H   0  0  0  0  0  0
  -12.8713  -23.3306  -27.6503 H   0  0  0  0  0  0
  -13.5555  -27.9200  -27.1414 H   0  0  0  0  0  0
  -14.2495  -27.7578  -28.7610 H   0  0  0  0  0  0
  -12.5278  -27.4633  -28.5067 H   0  0  0  0  0  0
  -13.7336  -25.4230  -28.6838 H   0  0  0  0  0  0
  1  2  2  0  0  0
  1  3  1  0  0  0
  1 18  1  0  0  0
  2  4  1  0  0  0
  2  5  1  0  0  0
  3  6  2  0  0  0
  3 27  1  0  0  0
  4  7  2  0  0  0
  4  8  1  0  0  0
  5 11  2  0  0  0
  6  7  1  0  0  0
  6 19  1  0  0  0
  7 28  1  0  0  0
  8  9  1  0  0  0
  8 10  2  0  0  0
  9 11  1  0  0  0
  9 29  1  0  0  0
 11 12  1  0  0  0
 12 13  2  0  0  0
 12 17  1  0  0  0
 13 14  1  0  0  0
 13 30  1  0  0  0
 14 15  2  0  0  0
 14 31  1  0  0  0
 15 16  1  0  0  0
 15 20  1  0  0  0
 16 17  2  0  0  0
 16 32  1  0  0  0
 17 33  1  0  0  0
 20 21  1  0  0  0
 20 25  1  0  0  0
 20 34  1  0  0  0
 21 22  1  0  0  0
 21 35  1  0  0  0
 21 36  1  0  0  0
 22 23  1  0  0  0
 22 37  1  0  0  0
 22 38  1  0  0  0
 23 24  1  0  0  0
 23 26  1  0  0  0
 23 46  1  0  0  0
 24 25  1  0  0  0
 24 39  1  0  0  0
 24 40  1  0  0  0
 25 41  1  0  0  0
 25 42  1  0  0  0
 26 43  1  0  0  0
 26 44  1  0  0  0
 26 45  1  0  0  0
M  CHG  1  23   1
M  END
> <s_m_entry_id>
502

> <Name>
8e

> <IC50[nM]>
31

> <s_m_Source_Path>
/projects/mai/users/kmzp800_harry/pmx_colab/docking_jobs/tnks2

> <s_m_Source_File>
tnks2_lig.sdf

> <i_m_Source_File_Index>
15

> <s_m_job_name>
glide-dock_SP_tnks_mcs_fallabck

> <r_i_docking_score>
-10.1010639835402

> <r_i_glide_gscore>
-10.1010639835402

> <r_i_glide_emodel>
-41.4136214811372

$$$$
5j
                    3D
 Schrodinger Suite 2021-4.
 37 39  0  0  1  0            999 V2000
  -14.4482  -14.8270  -27.6822 C   0  0  0  0  0  0
  -15.0287  -15.6247  -26.6867 C   0  0  0  0  0  0
  -14.5241  -13.4334  -27.5972 C   0  0  0  0  0  0
  -15.7370  -15.0282  -25.6156 C   0  0  0  0  0  0
  -14.8479  -17.0126  -26.7542 N   0  0  0  0  0  0
  -15.2209  -12.8414  -26.5368 C   0  0  0  0  0  0
  -15.8233  -13.6252  -25.5382 C   0  0  0  0  0  0
  -16.3645  -15.9465  -24.6119 C   0  0  0  0  0  0
  -16.1258  -17.2415  -24.8111 N   0  0  0  0  0  0
  -17.0527  -15.5724  -23.6674 O   0  0  0  0  0  0
  -15.3702  -17.7889  -25.8513 C   0  0  0  0  0  0
  -15.1967  -19.2631  -25.9310 C   0  0  0  0  0  0
  -14.7767  -19.8393  -27.1386 C   0  0  0  0  0  0
  -14.5423  -21.2161  -27.2224 C   0  0  0  0  0  0
  -14.7394  -22.0586  -26.1103 C   0  0  0  0  0  0
  -15.2061  -21.4770  -24.9106 C   0  0  0  0  0  0
  -15.4363  -20.0920  -24.8198 C   0  0  0  0  0  0
  -14.4457  -23.5490  -26.1811 C   0  0  0  0  0  0
  -14.1467  -23.9728  -27.5023 O   0  0  0  0  0  0
  -15.3170  -11.4988  -26.4875 F   0  0  0  0  0  0
  -16.4525  -13.0143  -24.5070 F   0  0  0  0  0  0
  -13.1762  -23.8420  -25.3488 C   0  0  0  0  0  0
  -15.6912  -24.3280  -25.7020 C   0  0  0  0  0  0
  -13.9092  -15.2885  -28.4972 H   0  0  0  0  0  0
  -14.0636  -12.8133  -28.3563 H   0  0  0  0  0  0
  -16.5581  -17.8938  -24.1720 H   0  0  0  0  0  0
  -14.6094  -19.2387  -28.0178 H   0  0  0  0  0  0
  -14.1867  -21.5727  -28.1728 H   0  0  0  0  0  0
  -15.3833  -22.0969  -24.0455 H   0  0  0  0  0  0
  -15.7857  -19.6901  -23.8816 H   0  0  0  0  0  0
  -13.9453  -24.8976  -27.5025 H   0  0  0  0  0  0
  -12.3467  -23.2445  -25.7265 H   0  0  0  0  0  0
  -12.8321  -24.8798  -25.3737 H   0  0  0  0  0  0
  -13.3181  -23.5649  -24.3051 H   0  0  0  0  0  0
  -16.5545  -24.0460  -26.2989 H   0  0  0  0  0  0
  -15.5446  -25.3985  -25.8994 H   0  0  0  0  0  0
  -15.9237  -24.1643  -24.6517 H   0  0  0  0  0  0
  1  2  2  0  0  0
  1  3  1  0  0  0
  1 24  1  0  0  0
  2  4  1  0  0  0
  2  5  1  0  0  0
  3  6  2  0  0  0
  3 25  1  0  0  0
  4  7  2  0  0  0
  4  8  1  0  0  0
  5 11  2  0  0  0
  6  7  1  0  0  0
  6 20  1  0  0  0
  7 21  1  0  0  0
  8  9  1  0  0  0
  8 10  2  0  0  0
  9 11  1  0  0  0
  9 26  1  0  0  0
 11 12  1  0  0  0
 12 13  2  0  0  0
 12 17  1  0  0  0
 13 14  1  0  0  0
 13 27  1  0  0  0
 14 15  2  0  0  0
 14 28  1  0  0  0
 15 16  1  0  0  0
 15 18  1  0  0  0
 16 17  2  0  0  0
 16 29  1  0  0  0
 17 30  1  0  0  0
 18 19  1  0  0  0
 18 22  1  0  0  0
 18 23  1  0  0  0
 19 31  1  0  0  0
 22 32  1  0  0  0
 22 33  1  0  0  0
 22 34  1  0  0  0
 23 35  1  0  0  0
 23 36  1  0  0  0
 23 37  1  0  0  0
M  END
> <s_m_entry_id>
503

> <Name>
5j

> <IC50[nM]>
7.5

> <s_m_Source_Path>
/projects/mai/users/kmzp800_harry/pmx_colab/docking_jobs/tnks2

> <s_m_Source_File>
tnks2_lig.sdf

> <i_m_Source_File_Index>
2

> <s_m_job_name>
glide-dock_SP_tnks_mcs_fallabck

> <r_i_docking_score>
-10.100926109912

> <r_i_glide_gscore>
-10.100926109912

> <r_i_glide_emodel>
-49.8765020273983

$$$$
5h
                    3D
 Schrodinger Suite 2021-4.
 41 43  0  0  1  0            999 V2000
  -14.4176  -14.7648  -27.6778 C   0  0  0  0  0  0
  -15.0301  -15.5995  -26.7092 C   0  0  0  0  0  0
  -14.5447  -13.3663  -27.5511 C   0  0  0  0  0  0
  -15.7640  -15.0225  -25.6431 C   0  0  0  0  0  0
  -14.8482  -16.9937  -26.7688 N   0  0  0  0  0  0
  -15.2529  -12.8010  -26.4807 C   0  0  0  0  0  0
  -15.8804  -13.6234  -25.5290 C   0  0  0  0  0  0
  -16.3761  -15.9485  -24.6365 C   0  0  0  0  0  0
  -16.1109  -17.2420  -24.8126 N   0  0  0  0  0  0
  -17.0714  -15.5727  -23.7049 O   0  0  0  0  0  0
  -15.3580  -17.7733  -25.8562 C   0  0  0  0  0  0
  -15.1978  -19.2496  -25.9332 C   0  0  0  0  0  0
  -14.7798  -19.8341  -27.1388 C   0  0  0  0  0  0
  -14.5477  -21.2082  -27.2154 C   0  0  0  0  0  0
  -14.7531  -22.0448  -26.1022 C   0  0  0  0  0  0
  -15.2142  -21.4647  -24.9016 C   0  0  0  0  0  0
  -15.4425  -20.0792  -24.8173 C   0  0  0  0  0  0
  -14.4614  -23.5397  -26.1814 C   0  0  0  0  0  0
  -14.1700  -23.9724  -27.5043 O   0  0  0  0  0  0
  -13.1967  -23.8574  -25.3682 C   0  0  0  0  0  0
  -15.6984  -24.3302  -25.7057 C   0  0  0  0  0  0
  -13.6489  -15.3446  -28.6658 O   0  0  0  0  0  0
  -12.9506  -14.5097  -29.5880 C   0  0  0  0  0  0
  -14.0986  -12.6769  -28.2518 H   0  0  0  0  0  0
  -15.3170  -11.7269  -26.4014 H   0  0  0  0  0  0
  -16.4321  -13.1806  -24.7108 H   0  0  0  0  0  0
  -16.5530  -17.8829  -24.1659 H   0  0  0  0  0  0
  -14.5830  -19.2304  -28.0132 H   0  0  0  0  0  0
  -14.1728  -21.5726  -28.1519 H   0  0  0  0  0  0
  -15.3747  -22.0747  -24.0252 H   0  0  0  0  0  0
  -15.7693  -19.6672  -23.8741 H   0  0  0  0  0  0
  -13.9766  -24.8969  -27.4816 H   0  0  0  0  0  0
  -12.3803  -23.2003  -25.6666 H   0  0  0  0  0  0
  -12.8479  -24.8766  -25.5298 H   0  0  0  0  0  0
  -13.3536  -23.7125  -24.2987 H   0  0  0  0  0  0
  -16.5766  -23.9941  -26.2578 H   0  0  0  0  0  0
  -15.6040  -25.3910  -25.9387 H   0  0  0  0  0  0
  -15.8964  -24.2181  -24.6407 H   0  0  0  0  0  0
  -12.1546  -15.0881  -30.0586 H   0  0  0  0  0  0
  -13.6249  -14.1516  -30.3661 H   0  0  0  0  0  0
  -12.4488  -13.6554  -29.1392 H   0  0  0  0  0  0
  1  2  2  0  0  0
  1  3  1  0  0  0
  1 22  1  0  0  0
  2  4  1  0  0  0
  2  5  1  0  0  0
  3  6  2  0  0  0
  3 24  1  0  0  0
  4  7  2  0  0  0
  4  8  1  0  0  0
  5 11  2  0  0  0
  6  7  1  0  0  0
  6 25  1  0  0  0
  7 26  1  0  0  0
  8  9  1  0  0  0
  8 10  2  0  0  0
  9 11  1  0  0  0
  9 27  1  0  0  0
 11 12  1  0  0  0
 12 13  2  0  0  0
 12 17  1  0  0  0
 13 14  1  0  0  0
 13 28  1  0  0  0
 14 15  2  0  0  0
 14 29  1  0  0  0
 15 16  1  0  0  0
 15 18  1  0  0  0
 16 17  2  0  0  0
 16 30  1  0  0  0
 17 31  1  0  0  0
 18 19  1  0  0  0
 18 20  1  0  0  0
 18 21  1  0  0  0
 19 32  1  0  0  0
 20 33  1  0  0  0
 20 34  1  0  0  0
 20 35  1  0  0  0
 21 36  1  0  0  0
 21 37  1  0  0  0
 21 38  1  0  0  0
 22 23  1  0  0  0
 23 39  1  0  0  0
 23 40  1  0  0  0
 23 41  1  0  0  0
M  END
> <s_m_entry_id>
504

> <Name>
5h

> <IC50[nM]>
43

> <s_m_Source_Path>
/projects/mai/users/kmzp800_harry/pmx_colab/docking_jobs/tnks2

> <s_m_Source_File>
tnks2_lig.sdf

> <i_m_Source_File_Index>
24

> <s_m_job_name>
glide-dock_SP_tnks_mcs_fallabck

> <r_i_docking_score>
-10.0846963162739

> <r_i_glide_gscore>
-10.0846963162739

> <r_i_glide_emodel>
-41.4793625007258

$$$$
8a
                    3D
 Schrodinger Suite 2021-4.
 45 48  0  0  1  0            999 V2000
  -14.4382  -14.8308  -27.6830 C   0  0  0  0  0  0
  -15.0240  -15.6330  -26.6915 C   0  0  0  0  0  0
  -14.5177  -13.4360  -27.5921 C   0  0  0  0  0  0
  -15.7437  -15.0334  -25.6318 C   0  0  0  0  0  0
  -14.8498  -17.0190  -26.7545 N   0  0  0  0  0  0
  -15.2313  -12.8426  -26.5424 C   0  0  0  0  0  0
  -15.8530  -13.6322  -25.5576 C   0  0  0  0  0  0
  -16.3713  -15.9475  -24.6191 C   0  0  0  0  0  0
  -16.1228  -17.2477  -24.8127 N   0  0  0  0  0  0
  -17.0675  -15.5727  -23.6811 O   0  0  0  0  0  0
  -15.3741  -17.7929  -25.8510 C   0  0  0  0  0  0
  -15.2171  -19.2709  -25.9362 C   0  0  0  0  0  0
  -15.4654  -20.1058  -24.8282 C   0  0  0  0  0  0
  -15.2536  -21.4920  -24.9256 C   0  0  0  0  0  0
  -14.7764  -22.0592  -26.1211 C   0  0  0  0  0  0
  -14.5348  -21.2225  -27.2233 C   0  0  0  0  0  0
  -14.7800  -19.8480  -27.1386 C   0  0  0  0  0  0
  -15.3475  -11.4963  -26.5073 F   0  0  0  0  0  0
  -14.5406  -23.4368  -26.2125 N   0  0  0  0  0  0
  -15.6529  -24.3503  -26.4065 C   0  0  0  0  0  0
  -15.4002  -25.2514  -27.6241 C   0  0  0  0  0  0
  -14.0671  -25.8927  -27.5524 N   0  3  0  0  0  0
  -12.9830  -24.8883  -27.4445 C   0  0  0  0  0  0
  -13.1866  -23.9682  -26.2291 C   0  0  0  0  0  0
  -13.8505  -26.8085  -28.6895 C   0  0  0  0  0  0
  -14.0502  -12.8075  -28.3330 H   0  0  0  0  0  0
  -16.4006  -13.1641  -24.7545 H   0  0  0  0  0  0
  -16.5561  -17.8973  -24.1757 H   0  0  0  0  0  0
  -15.8172  -19.7007  -23.8934 H   0  0  0  0  0  0
  -15.4509  -22.1094  -24.0666 H   0  0  0  0  0  0
  -14.1419  -21.5855  -28.1514 H   0  0  0  0  0  0
  -14.5795  -19.2435  -28.0088 H   0  0  0  0  0  0
  -16.5748  -23.7901  -26.5389 H   0  0  0  0  0  0
  -15.7914  -24.9609  -25.5164 H   0  0  0  0  0  0
  -16.1759  -26.0130  -27.6816 H   0  0  0  0  0  0
  -15.4699  -24.6616  -28.5386 H   0  0  0  0  0  0
  -12.0212  -25.3931  -27.3675 H   0  0  0  0  0  0
  -12.9517  -24.2905  -28.3556 H   0  0  0  0  0  0
  -13.0180  -24.5230  -25.3050 H   0  0  0  0  0  0
  -12.4468  -23.1718  -26.2411 H   0  0  0  0  0  0
  -13.9167  -26.2760  -29.6412 H   0  0  0  0  0  0
  -12.8688  -27.2763  -28.6301 H   0  0  0  0  0  0
  -14.5960  -27.6031  -28.6937 H   0  0  0  0  0  0
  -14.0470  -26.4458  -26.7050 H   0  0  0  0  0  0
  -13.8996  -15.2812  -28.5018 H   0  0  0  0  0  0
  1  2  2  0  0  0
  1  3  1  0  0  0
  1 45  1  0  0  0
  2  4  1  0  0  0
  2  5  1  0  0  0
  3  6  2  0  0  0
  3 26  1  0  0  0
  4  7  2  0  0  0
  4  8  1  0  0  0
  5 11  2  0  0  0
  6  7  1  0  0  0
  6 18  1  0  0  0
  7 27  1  0  0  0
  8  9  1  0  0  0
  8 10  2  0  0  0
  9 11  1  0  0  0
  9 28  1  0  0  0
 11 12  1  0  0  0
 12 13  2  0  0  0
 12 17  1  0  0  0
 13 14  1  0  0  0
 13 29  1  0  0  0
 14 15  2  0  0  0
 14 30  1  0  0  0
 15 16  1  0  0  0
 15 19  1  0  0  0
 16 17  2  0  0  0
 16 31  1  0  0  0
 17 32  1  0  0  0
 19 20  1  0  0  0
 19 24  1  0  0  0
 20 21  1  0  0  0
 20 33  1  0  0  0
 20 34  1  0  0  0
 21 22  1  0  0  0
 21 35  1  0  0  0
 21 36  1  0  0  0
 22 23  1  0  0  0
 22 25  1  0  0  0
 22 44  1  0  0  0
 23 24  1  0  0  0
 23 37  1  0  0  0
 23 38  1  0  0  0
 24 39  1  0  0  0
 24 40  1  0  0  0
 25 41  1  0  0  0
 25 42  1  0  0  0
 25 43  1  0  0  0
M  CHG  1  22   1
M  END
> <s_m_entry_id>
505

> <Name>
8a

> <IC50[nM]>
12

> <s_m_Source_Path>
/projects/mai/users/kmzp800_harry/pmx_colab/docking_jobs/tnks2

> <s_m_Source_File>
tnks2_lig.sdf

> <i_m_Source_File_Index>
18

> <s_m_job_name>
glide-dock_SP_tnks_mcs_fallabck

> <r_i_docking_score>
-10.0817135264853

> <r_i_glide_gscore>
-10.0817135264853

> <r_i_glide_emodel>
-40.3159245771767

$$$$
8c
                    3D
 Schrodinger Suite 2021-4.
 43 46  0  0  1  0            999 V2000
  -14.4430  -14.8253  -27.6796 C   0  0  0  0  0  0
  -15.0340  -15.6370  -26.6944 C   0  0  0  0  0  0
  -14.5206  -13.4323  -27.5833 C   0  0  0  0  0  0
  -15.7548  -15.0413  -25.6320 C   0  0  0  0  0  0
  -14.8481  -17.0212  -26.7557 N   0  0  0  0  0  0
  -15.2440  -12.8476  -26.5347 C   0  0  0  0  0  0
  -15.8711  -13.6411  -25.5517 C   0  0  0  0  0  0
  -16.3716  -15.9556  -24.6195 C   0  0  0  0  0  0
  -16.1301  -17.2547  -24.8164 N   0  0  0  0  0  0
  -17.0537  -15.5725  -23.6782 O   0  0  0  0  0  0
  -15.3699  -17.7952  -25.8491 C   0  0  0  0  0  0
  -15.2049  -19.2708  -25.9291 C   0  0  0  0  0  0
  -15.4503  -20.1089  -24.8189 C   0  0  0  0  0  0
  -15.2499  -21.4987  -24.9210 C   0  0  0  0  0  0
  -14.7856  -22.0637  -26.1255 C   0  0  0  0  0  0
  -14.5583  -21.2181  -27.2291 C   0  0  0  0  0  0
  -14.7814  -19.8459  -27.1389 C   0  0  0  0  0  0
  -13.7475  -15.3805  -28.6998 F   0  0  0  0  0  0
  -15.3272  -11.5121  -26.4852 F   0  0  0  0  0  0
  -14.5065  -23.5552  -26.2283 C   0  0  0  0  0  0
  -15.4748  -24.2494  -27.2083 C   0  0  0  0  0  0
  -15.1176  -25.7309  -27.4291 C   0  0  0  0  0  0
  -13.7076  -25.8773  -27.8504 N   0  3  0  0  0  0
  -12.7590  -25.3057  -26.8744 C   0  0  0  0  0  0
  -13.0479  -23.8147  -26.6542 C   0  0  0  0  0  0
  -14.0449  -12.8059  -28.3243 H   0  0  0  0  0  0
  -16.4247  -13.1798  -24.7470 H   0  0  0  0  0  0
  -16.5777  -17.8994  -24.1774 H   0  0  0  0  0  0
  -15.7848  -19.7059  -23.8756 H   0  0  0  0  0  0
  -15.4309  -22.1242  -24.0619 H   0  0  0  0  0  0
  -14.1838  -21.5727  -28.1702 H   0  0  0  0  0  0
  -14.5768  -19.2370  -28.0072 H   0  0  0  0  0  0
  -14.6536  -23.9839  -25.2373 H   0  0  0  0  0  0
  -16.4949  -24.1685  -26.8323 H   0  0  0  0  0  0
  -15.4553  -23.7375  -28.1721 H   0  0  0  0  0  0
  -15.2775  -26.3006  -26.5127 H   0  0  0  0  0  0
  -15.7644  -26.1652  -28.1937 H   0  0  0  0  0  0
  -13.5012  -26.8610  -27.9592 H   0  0  0  0  0  0
  -12.8380  -25.8496  -25.9384 H   0  0  0  0  0  0
  -11.7421  -25.4452  -27.2360 H   0  0  0  0  0  0
  -12.8246  -23.2869  -27.5802 H   0  0  0  0  0  0
  -12.3707  -23.4152  -25.9032 H   0  0  0  0  0  0
  -13.5802  -25.4153  -28.7369 H   0  0  0  0  0  0
  1  2  2  0  0  0
  1  3  1  0  0  0
  1 18  1  0  0  0
  2  4  1  0  0  0
  2  5  1  0  0  0
  3  6  2  0  0  0
  3 26  1  0  0  0
  4  7  2  0  0  0
  4  8  1  0  0  0
  5 11  2  0  0  0
  6  7  1  0  0  0
  6 19  1  0  0  0
  7 27  1  0  0  0
  8  9  1  0  0  0
  8 10  2  0  0  0
  9 11  1  0  0  0
  9 28  1  0  0  0
 11 12  1  0  0  0
 12 13  2  0  0  0
 12 17  1  0  0  0
 13 14  1  0  0  0
 13 29  1  0  0  0
 14 15  2  0  0  0
 14 30  1  0  0  0
 15 16  1  0  0  0
 15 20  1  0  0  0
 16 17  2  0  0  0
 16 31  1  0  0  0
 17 32  1  0  0  0
 20 21  1  0  0  0
 20 25  1  0  0  0
 20 33  1  0  0  0
 21 22  1  0  0  0
 21 34  1  0  0  0
 21 35  1  0  0  0
 22 23  1  0  0  0
 22 36  1  0  0  0
 22 37  1  0  0  0
 23 24  1  0  0  0
 23 38  1  0  0  0
 23 43  1  0  0  0
 24 25  1  0  0  0
 24 39  1  0  0  0
 24 40  1  0  0  0
 25 41  1  0  0  0
 25 42  1  0  0  0
M  CHG  1  23   1
M  END
> <s_m_entry_id>
506

> <Name>
8c

> <IC50[nM]>
38

> <s_m_Source_Path>
/projects/mai/users/kmzp800_harry/pmx_colab/docking_jobs/tnks2

> <s_m_Source_File>
tnks2_lig.sdf

> <i_m_Source_File_Index>
25

> <s_m_job_name>
glide-dock_SP_tnks_mcs_fallabck

> <r_i_docking_score>
-10.0793064775496

> <r_i_glide_gscore>
-10.0793064775496

> <r_i_glide_emodel>
-44.4854815085554

$$$$
5e
                    3D
 Schrodinger Suite 2021-4.
 37 39  0  0  1  0            999 V2000
  -14.4404  -15.2731  -27.8112 C   0  0  0  0  0  0
  -15.0003  -15.9606  -26.7260 C   0  0  0  0  0  0
  -14.4483  -13.8829  -27.8164 C   0  0  0  0  0  0
  -15.6476  -15.2716  -25.6739 C   0  0  0  0  0  0
  -14.8483  -17.3324  -26.6946 N   0  0  0  0  0  0
  -15.0296  -13.2158  -26.7391 C   0  0  0  0  0  0
  -15.6681  -13.8713  -25.6766 C   0  0  0  0  0  0
  -16.2364  -16.0783  -24.5605 C   0  0  0  0  0  0
  -16.0480  -17.3991  -24.6690 N   0  0  0  0  0  0
  -16.8454  -15.5748  -23.6230 O   0  0  0  0  0  0
  -15.3670  -18.0193  -25.7232 C   0  0  0  0  0  0
  -15.2665  -19.4801  -25.8015 C   0  0  0  0  0  0
  -15.5625  -20.2894  -24.6896 C   0  0  0  0  0  0
  -15.4301  -21.6787  -24.7997 C   0  0  0  0  0  0
  -14.9852  -22.2488  -26.0123 C   0  0  0  0  0  0
  -14.6609  -21.4307  -27.0873 C   0  0  0  0  0  0
  -14.8482  -20.0590  -27.0139 C   0  0  0  0  0  0
  -14.7638  -23.7255  -26.1536 C   0  0  0  0  0  0
  -15.6482  -24.3726  -25.3054 O   0  0  0  0  0  0
  -14.8480  -11.5665  -26.7386 Cl  0  0  0  0  0  0
  -13.2879  -24.0052  -25.8120 C   0  0  0  0  0  0
  -15.1805  -24.3197  -27.5106 C   0  0  0  0  0  0
  -13.9625  -15.8131  -28.6156 H   0  0  0  0  0  0
  -13.9743  -13.3330  -28.6163 H   0  0  0  0  0  0
  -16.1147  -13.3126  -24.8651 H   0  0  0  0  0  0
  -16.4982  -17.9825  -23.9740 H   0  0  0  0  0  0
  -15.8819  -19.8657  -23.7494 H   0  0  0  0  0  0
  -15.6457  -22.2959  -23.9411 H   0  0  0  0  0  0
  -14.2083  -21.8642  -27.9431 H   0  0  0  0  0  0
  -14.5875  -19.4702  -27.8821 H   0  0  0  0  0  0
  -15.5181  -25.3067  -25.3666 H   0  0  0  0  0  0
  -12.6169  -23.4402  -26.4581 H   0  0  0  0  0  0
  -13.0313  -25.0562  -25.9394 H   0  0  0  0  0  0
  -13.0587  -23.7262  -24.7822 H   0  0  0  0  0  0
  -14.5581  -23.9824  -28.3358 H   0  0  0  0  0  0
  -15.1031  -25.4080  -27.5057 H   0  0  0  0  0  0
  -16.2131  -24.0663  -27.7567 H   0  0  0  0  0  0
  1  2  2  0  0  0
  1  3  1  0  0  0
  1 23  1  0  0  0
  2  4  1  0  0  0
  2  5  1  0  0  0
  3  6  2  0  0  0
  3 24  1  0  0  0
  4  7  2  0  0  0
  4  8  1  0  0  0
  5 11  2  0  0  0
  6  7  1  0  0  0
  6 20  1  0  0  0
  7 25  1  0  0  0
  8  9  1  0  0  0
  8 10  2  0  0  0
  9 11  1  0  0  0
  9 26  1  0  0  0
 11 12  1  0  0  0
 12 13  2  0  0  0
 12 17  1  0  0  0
 13 14  1  0  0  0
 13 27  1  0  0  0
 14 15  2  0  0  0
 14 28  1  0  0  0
 15 16  1  0  0  0
 15 18  1  0  0  0
 16 17  2  0  0  0
 16 29  1  0  0  0
 17 30  1  0  0  0
 18 19  1  0  0  0
 18 21  1  0  0  0
 18 22  1  0  0  0
 19 31  1  0  0  0
 21 32  1  0  0  0
 21 33  1  0  0  0
 21 34  1  0  0  0
 22 35  1  0  0  0
 22 36  1  0  0  0
 22 37  1  0  0  0
M  END
> <s_m_entry_id>
507

> <Name>
5e

> <IC50[nM]>
39

> <s_m_Source_Path>
/projects/mai/users/kmzp800_harry/pmx_colab/docking_jobs/tnks2

> <s_m_Source_File>
tnks2_lig.sdf

> <i_m_Source_File_Index>
23

> <s_m_job_name>
glide-dock_SP_tnks_mcs_fallabck

> <r_i_docking_score>
-10.0732872317482

> <r_i_glide_gscore>
-10.0732872317482

> <r_i_glide_emodel>
-42.9172163661598

$$$$
5b
                    3D
 Schrodinger Suite 2021-4.
 37 39  0  0  1  0            999 V2000
  -14.4444  -14.7997  -27.6848 C   0  0  0  0  0  0
  -15.0288  -15.6095  -26.6925 C   0  0  0  0  0  0
  -14.5170  -13.4002  -27.5795 C   0  0  0  0  0  0
  -15.7355  -15.0182  -25.6162 C   0  0  0  0  0  0
  -14.8481  -16.9974  -26.7625 N   0  0  0  0  0  0
  -15.2097  -12.8105  -26.5093 C   0  0  0  0  0  0
  -15.8248  -13.6151  -25.5418 C   0  0  0  0  0  0
  -16.3606  -15.9391  -24.6130 C   0  0  0  0  0  0
  -16.1172  -17.2394  -24.8110 N   0  0  0  0  0  0
  -17.0502  -15.5715  -23.6731 O   0  0  0  0  0  0
  -15.3613  -17.7739  -25.8550 C   0  0  0  0  0  0
  -15.1985  -19.2525  -25.9333 C   0  0  0  0  0  0
  -14.7805  -19.8369  -27.1386 C   0  0  0  0  0  0
  -14.5483  -21.2087  -27.2241 C   0  0  0  0  0  0
  -14.7532  -22.0465  -26.1162 C   0  0  0  0  0  0
  -15.2177  -21.4666  -24.9121 C   0  0  0  0  0  0
  -15.4375  -20.0830  -24.8191 C   0  0  0  0  0  0
  -14.4593  -23.5376  -26.1841 C   0  0  0  0  0  0
  -14.1785  -23.9714  -27.5115 O   0  0  0  0  0  0
  -13.1795  -23.8275  -25.3785 C   0  0  0  0  0  0
  -15.6901  -24.3280  -25.7004 C   0  0  0  0  0  0
  -16.4482  -13.0152  -24.5206 F   0  0  0  0  0  0
  -13.8969  -15.2575  -28.5000 H   0  0  0  0  0  0
  -14.0492  -12.7789  -28.3344 H   0  0  0  0  0  0
  -15.2679  -11.7344  -26.4567 H   0  0  0  0  0  0
  -16.5524  -17.8832  -24.1681 H   0  0  0  0  0  0
  -14.5898  -19.2367  -28.0169 H   0  0  0  0  0  0
  -14.1850  -21.5727  -28.1641 H   0  0  0  0  0  0
  -15.3835  -22.0777  -24.0398 H   0  0  0  0  0  0
  -15.7796  -19.6724  -23.8837 H   0  0  0  0  0  0
  -13.9681  -24.8903  -27.4902 H   0  0  0  0  0  0
  -12.3507  -23.2241  -25.7479 H   0  0  0  0  0  0
  -12.8426  -24.8606  -25.4309 H   0  0  0  0  0  0
  -13.3145  -23.5721  -24.3293 H   0  0  0  0  0  0
  -16.5640  -24.0354  -26.2872 H   0  0  0  0  0  0
  -15.5651  -25.3944  -25.8900 H   0  0  0  0  0  0
  -15.9091  -24.1492  -24.6500 H   0  0  0  0  0  0
  1  2  2  0  0  0
  1  3  1  0  0  0
  1 23  1  0  0  0
  2  4  1  0  0  0
  2  5  1  0  0  0
  3  6  2  0  0  0
  3 24  1  0  0  0
  4  7  2  0  0  0
  4  8  1  0  0  0
  5 11  2  0  0  0
  6  7  1  0  0  0
  6 25  1  0  0  0
  7 22  1  0  0  0
  8  9  1  0  0  0
  8 10  2  0  0  0
  9 11  1  0  0  0
  9 26  1  0  0  0
 11 12  1  0  0  0
 12 13  2  0  0  0
 12 17  1  0  0  0
 13 14  1  0  0  0
 13 27  1  0  0  0
 14 15  2  0  0  0
 14 28  1  0  0  0
 15 16  1  0  0  0
 15 18  1  0  0  0
 16 17  2  0  0  0
 16 29  1  0  0  0
 17 30  1  0  0  0
 18 19  1  0  0  0
 18 20  1  0  0  0
 18 21  1  0  0  0
 19 31  1  0  0  0
 20 32  1  0  0  0
 20 33  1  0  0  0
 20 34  1  0  0  0
 21 35  1  0  0  0
 21 36  1  0  0  0
 21 37  1  0  0  0
M  END
> <s_m_entry_id>
508

> <Name>
5b

> <IC50[nM]>
21

> <s_m_Source_Path>
/projects/mai/users/kmzp800_harry/pmx_colab/docking_jobs/tnks2

> <s_m_Source_File>
tnks2_lig.sdf

> <i_m_Source_File_Index>
5

> <s_m_job_name>
glide-dock_SP_tnks_mcs_fallabck

> <r_i_docking_score>
-10.0423312105963

> <r_i_glide_gscore>
-10.0423312105963

> <r_i_glide_emodel>
-51.4428660627513

$$$$
8b
                    3D
 Schrodinger Suite 2021-4.
 48 51  0  0  1  0            999 V2000
  -14.4483  -14.8038  -27.6447 C   0  0  0  0  0  0
  -15.0214  -15.6323  -26.6564 C   0  0  0  0  0  0
  -14.5383  -13.4228  -27.5337 C   0  0  0  0  0  0
  -15.7353  -15.0369  -25.5983 C   0  0  0  0  0  0
  -14.8658  -17.0275  -26.7536 N   0  0  0  0  0  0
  -15.2481  -12.8467  -26.4958 C   0  0  0  0  0  0
  -15.8668  -13.6444  -25.5170 C   0  0  0  0  0  0
  -16.3722  -15.9512  -24.6056 C   0  0  0  0  0  0
  -16.1285  -17.2507  -24.8153 N   0  0  0  0  0  0
  -17.0507  -15.5751  -23.6654 O   0  0  0  0  0  0
  -15.3826  -17.7955  -25.8529 C   0  0  0  0  0  0
  -15.2176  -19.2741  -25.9371 C   0  0  0  0  0  0
  -15.4615  -20.0961  -24.8193 C   0  0  0  0  0  0
  -15.2474  -21.4834  -24.9048 C   0  0  0  0  0  0
  -14.7741  -22.0648  -26.0902 C   0  0  0  0  0  0
  -14.5331  -21.2380  -27.1974 C   0  0  0  0  0  0
  -14.7781  -19.8646  -27.1429 C   0  0  0  0  0  0
  -15.3508  -11.5106  -26.4963 F   0  0  0  0  0  0
  -14.5452  -23.4386  -26.1703 N   0  0  0  0  0  0
  -13.1842  -23.9512  -26.1994 C   0  0  0  0  0  0
  -12.9740  -24.8658  -27.4152 C   0  0  0  0  0  0
  -14.0570  -25.8705  -27.5361 N   0  3  0  0  0  0
  -15.3906  -25.2328  -27.6161 C   0  0  0  0  0  0
  -15.6656  -24.3396  -26.3988 C   0  0  0  0  0  0
  -13.8270  -26.7969  -28.6611 C   0  0  0  0  0  0
  -14.1151  -12.7912  -28.3054 H   0  0  0  0  0  0
  -16.4571  -13.2004  -24.7195 H   0  0  0  0  0  0
  -16.5334  -17.9067  -24.1678 H   0  0  0  0  0  0
  -15.7949  -19.6899  -23.8850 H   0  0  0  0  0  0
  -15.4452  -22.0863  -24.0296 H   0  0  0  0  0  0
  -14.1435  -21.6374  -28.1127 H   0  0  0  0  0  0
  -14.5559  -19.2540  -28.0008 H   0  0  0  0  0  0
  -12.4592  -23.1441  -26.2366 H   0  0  0  0  0  0
  -12.9932  -24.4901  -25.2833 H   0  0  0  0  0  0
  -12.0176  -25.3755  -27.3290 H   0  0  0  0  0  0
  -12.9336  -24.2724  -28.3380 H   0  0  0  0  0  0
  -16.1613  -26.0049  -27.6803 H   0  0  0  0  0  0
  -15.4565  -24.6413  -28.5400 H   0  0  0  0  0  0
  -15.8108  -24.9490  -25.5180 H   0  0  0  0  0  0
  -16.5881  -23.7898  -26.5621 H   0  0  0  0  0  0
  -13.8043  -26.2544  -29.6061 H   0  0  0  0  0  0
  -12.8823  -27.3146  -28.5351 H   0  0  0  0  0  0
  -14.6201  -27.5380  -28.7063 H   0  0  0  0  0  0
  -14.0463  -26.4093  -26.6798 H   0  0  0  0  0  0
  -13.8514  -15.3675  -28.8710 C   0  0  0  0  0  0
  -14.3547  -16.2845  -29.1872 H   0  0  0  0  0  0
  -13.8131  -14.6494  -29.7000 H   0  0  0  0  0  0
  -12.8438  -15.5826  -28.6002 H   0  0  0  0  0  0
  1  2  2  0  0  0
  1  3  1  0  0  0
  1 45  1  0  0  0
  2  4  1  0  0  0
  2  5  1  0  0  0
  3  6  2  0  0  0
  3 26  1  0  0  0
  4  7  2  0  0  0
  4  8  1  0  0  0
  5 11  2  0  0  0
  6  7  1  0  0  0
  6 18  1  0  0  0
  7 27  1  0  0  0
  8  9  1  0  0  0
  8 10  2  0  0  0
  9 11  1  0  0  0
  9 28  1  0  0  0
 11 12  1  0  0  0
 12 13  2  0  0  0
 12 17  1  0  0  0
 13 14  1  0  0  0
 13 29  1  0  0  0
 14 15  2  0  0  0
 14 30  1  0  0  0
 15 16  1  0  0  0
 15 19  1  0  0  0
 16 17  2  0  0  0
 16 31  1  0  0  0
 17 32  1  0  0  0
 19 20  1  0  0  0
 19 24  1  0  0  0
 20 21  1  0  0  0
 20 33  1  0  0  0
 20 34  1  0  0  0
 21 22  1  0  0  0
 21 35  1  0  0  0
 21 36  1  0  0  0
 22 23  1  0  0  0
 22 25  1  0  0  0
 22 44  1  0  0  0
 23 24  1  0  0  0
 23 37  1  0  0  0
 23 38  1  0  0  0
 24 39  1  0  0  0
 24 40  1  0  0  0
 25 41  1  0  0  0
 25 42  1  0  0  0
 25 43  1  0  0  0
 45 46  1  0  0  0
 45 47  1  0  0  0
 45 48  1  0  0  0
M  CHG  1  22   1
M  END
> <s_m_entry_id>
509

> <Name>
8b

> <IC50[nM]>
1.8

> <s_m_Source_Path>
/projects/mai/users/kmzp800_harry/pmx_colab/docking_jobs/tnks2

> <s_m_Source_File>
tnks2_lig.sdf

> <i_m_Source_File_Index>
14

> <s_m_job_name>
glide-dock_SP_tnks_mcs_fallabck

> <r_i_docking_score>
-10.0346550157432

> <r_i_glide_gscore>
-10.0346550157432

> <r_i_glide_emodel>
-27.9218181674051

$$$$
1a
                    3D
 Schrodinger Suite 2021-4.
 27 29  0  0  1  0            999 V2000
  -15.2081  -19.2628  -25.9368 C   0  0  0  0  0  0
  -14.7812  -19.8494  -27.1390 C   0  0  0  0  0  0
  -15.4456  -20.0917  -24.8190 C   0  0  0  0  0  0
  -14.5601  -21.2281  -27.2183 C   0  0  0  0  0  0
  -15.2444  -21.4819  -24.9076 C   0  0  0  0  0  0
  -14.8478  -17.0020  -26.7569 N   0  0  0  0  0  0
  -14.7913  -22.0563  -26.1084 C   0  0  0  0  0  0
  -15.0362  -15.6139  -26.6816 C   0  0  0  0  0  0
  -15.7592  -15.0278  -25.6162 C   0  0  0  0  0  0
  -15.2481  -12.8102  -26.4800 C   0  0  0  0  0  0
  -14.5340  -13.3898  -27.5413 C   0  0  0  0  0  0
  -15.8748  -13.6268  -25.5219 C   0  0  0  0  0  0
  -14.4484  -14.7879  -27.6570 C   0  0  0  0  0  0
  -16.3722  -15.9499  -24.6079 C   0  0  0  0  0  0
  -16.1223  -17.2460  -24.8140 N   0  0  0  0  0  0
  -15.3670  -17.7832  -25.8536 C   0  0  0  0  0  0
  -17.0557  -15.5725  -23.6631 O   0  0  0  0  0  0
  -14.5699  -19.2490  -28.0106 H   0  0  0  0  0  0
  -15.7768  -19.6784  -23.8810 H   0  0  0  0  0  0
  -14.1815  -21.5968  -28.1489 H   0  0  0  0  0  0
  -15.4288  -22.1068  -24.0468 H   0  0  0  0  0  0
  -14.0575  -12.7557  -28.2737 H   0  0  0  0  0  0
  -16.4272  -13.1809  -24.7100 H   0  0  0  0  0  0
  -16.5567  -17.8943  -24.1746 H   0  0  0  0  0  0
  -13.8938  -15.2245  -28.4731 H   0  0  0  0  0  0
  -15.3116  -11.7369  -26.4083 H   0  0  0  0  0  0
  -14.6146  -23.1205  -26.1722 H   0  0  0  0  0  0
  1  2  2  0  0  0
  1  3  1  0  0  0
  1 16  1  0  0  0
  2  4  1  0  0  0
  2 18  1  0  0  0
  3  5  2  0  0  0
  3 19  1  0  0  0
  4  7  2  0  0  0
  4 20  1  0  0  0
  5  7  1  0  0  0
  5 21  1  0  0  0
  6  8  1  0  0  0
  6 16  2  0  0  0
  7 27  1  0  0  0
  8  9  2  0  0  0
  8 13  1  0  0  0
  9 12  1  0  0  0
  9 14  1  0  0  0
 10 11  1  0  0  0
 10 12  2  0  0  0
 10 26  1  0  0  0
 11 13  2  0  0  0
 11 22  1  0  0  0
 12 23  1  0  0  0
 13 25  1  0  0  0
 14 15  1  0  0  0
 14 17  2  0  0  0
 15 16  1  0  0  0
 15 24  1  0  0  0
M  END
> <s_m_entry_id>
510

> <Name>
1a

> <IC50[nM]>
540

> <s_m_Source_Path>
/projects/mai/users/kmzp800_harry/pmx_colab/docking_jobs/tnks2

> <s_m_Source_File>
tnks2_lig.sdf

> <i_m_Source_File_Index>
9

> <s_m_job_name>
glide-dock_SP_tnks_mcs_fallabck

> <r_i_docking_score>
-10.0333172436319

> <r_i_glide_gscore>
-10.0333172436319

> <r_i_glide_emodel>
-56.446942192134

$$$$
8f
                    3D
 Schrodinger Suite 2021-4.
 49 52  0  0  1  0            999 V2000
  -14.4258  -14.7846  -27.6604 C   0  0  0  0  0  0
  -15.0258  -15.6169  -26.6823 C   0  0  0  0  0  0
  -14.5164  -13.3978  -27.5477 C   0  0  0  0  0  0
  -15.7574  -15.0306  -25.6169 C   0  0  0  0  0  0
  -14.8487  -17.0108  -26.7389 N   0  0  0  0  0  0
  -15.2322  -12.8409  -26.5004 C   0  0  0  0  0  0
  -15.8753  -13.6312  -25.5274 C   0  0  0  0  0  0
  -16.3761  -15.9492  -24.6073 C   0  0  0  0  0  0
  -16.1252  -17.2430  -24.8114 N   0  0  0  0  0  0
  -17.0509  -15.5732  -23.6543 O   0  0  0  0  0  0
  -15.3625  -17.7865  -25.8374 C   0  0  0  0  0  0
  -15.1953  -19.2604  -25.9278 C   0  0  0  0  0  0
  -14.7809  -19.8406  -27.1380 C   0  0  0  0  0  0
  -14.5688  -21.2210  -27.2337 C   0  0  0  0  0  0
  -14.7715  -22.0626  -26.1197 C   0  0  0  0  0  0
  -15.2202  -21.4852  -24.9072 C   0  0  0  0  0  0
  -15.4458  -20.0942  -24.8183 C   0  0  0  0  0  0
  -13.6523  -15.3291  -28.8349 C   0  0  0  0  0  0
  -15.3326  -11.5131  -26.4881 F   0  0  0  0  0  0
  -14.4879  -23.5533  -26.2195 C   0  0  1  0  0  0
  -15.4846  -24.2630  -27.1536 C   0  0  0  0  0  0
  -15.1542  -25.7536  -27.3166 C   0  0  0  0  0  0
  -13.7618  -25.9421  -27.7965 N   0  3  1  0  0  0
  -12.7584  -25.3204  -26.8907 C   0  0  0  0  0  0
  -13.0411  -23.8228  -26.6803 C   0  0  0  0  0  0
  -13.4497  -27.3598  -28.0834 C   0  0  0  0  0  0
  -14.0373  -12.7500  -28.2636 H   0  0  0  0  0  0
  -16.4316  -13.1694  -24.7275 H   0  0  0  0  0  0
  -16.5643  -17.8785  -24.1587 H   0  0  0  0  0  0
  -14.5784  -19.2295  -28.0093 H   0  0  0  0  0  0
  -14.2108  -21.5713  -28.1797 H   0  0  0  0  0  0
  -15.3948  -22.1002  -24.0368 H   0  0  0  0  0  0
  -15.7695  -19.6754  -23.8777 H   0  0  0  0  0  0
  -13.9775  -16.3563  -28.9769 H   0  0  0  0  0  0
  -13.9735  -14.7823  -29.7255 H   0  0  0  0  0  0
  -12.5742  -15.2416  -28.7382 H   0  0  0  0  0  0
  -14.6119  -23.9760  -25.2210 H   0  0  0  0  0  0
  -16.5024  -24.1605  -26.7796 H   0  0  0  0  0  0
  -15.4781  -23.7911  -28.1346 H   0  0  0  0  0  0
  -15.2896  -26.2638  -26.3704 H   0  0  0  0  0  0
  -15.8481  -26.2016  -28.0304 H   0  0  0  0  0  0
  -12.7240  -25.8533  -25.9460 H   0  0  0  0  0  0
  -11.7631  -25.4394  -27.3215 H   0  0  0  0  0  0
  -12.8451  -23.3198  -27.6328 H   0  0  0  0  0  0
  -12.3371  -23.4213  -25.9530 H   0  0  0  0  0  0
  -13.4815  -27.9505  -27.1677 H   0  0  0  0  0  0
  -14.1718  -27.7820  -28.7834 H   0  0  0  0  0  0
  -12.4546  -27.4691  -28.5209 H   0  0  0  0  0  0
  -13.6881  -25.4575  -28.6741 H   0  0  0  0  0  0
  1  2  2  0  0  0
  1  3  1  0  0  0
  1 18  1  0  0  0
  2  4  1  0  0  0
  2  5  1  0  0  0
  3  6  2  0  0  0
  3 27  1  0  0  0
  4  7  2  0  0  0
  4  8  1  0  0  0
  5 11  2  0  0  0
  6  7  1  0  0  0
  6 19  1  0  0  0
  7 28  1  0  0  0
  8  9  1  0  0  0
  8 10  2  0  0  0
  9 11  1  0  0  0
  9 29  1  0  0  0
 11 12  1  0  0  0
 12 13  2  0  0  0
 12 17  1  0  0  0
 13 14  1  0  0  0
 13 30  1  0  0  0
 14 15  2  0  0  0
 14 31  1  0  0  0
 15 16  1  0  0  0
 15 20  1  0  0  0
 16 17  2  0  0  0
 16 32  1  0  0  0
 17 33  1  0  0  0
 18 34  1  0  0  0
 18 35  1  0  0  0
 18 36  1  0  0  0
 20 21  1  0  0  0
 20 25  1  0  0  0
 20 37  1  0  0  0
 21 22  1  0  0  0
 21 38  1  0  0  0
 21 39  1  0  0  0
 22 23  1  0  0  0
 22 40  1  0  0  0
 22 41  1  0  0  0
 23 24  1  0  0  0
 23 26  1  0  0  0
 23 49  1  0  0  0
 24 25  1  0  0  0
 24 42  1  0  0  0
 24 43  1  0  0  0
 25 44  1  0  0  0
 25 45  1  0  0  0
 26 46  1  0  0  0
 26 47  1  0  0  0
 26 48  1  0  0  0
M  CHG  1  23   1
M  END
> <s_m_entry_id>
511

> <Name>
8f

> <IC50[nM]>
2.2

> <s_m_Source_Path>
/projects/mai/users/kmzp800_harry/pmx_colab/docking_jobs/tnks2

> <s_m_Source_File>
tnks2_lig.sdf

> <i_m_Source_File_Index>
12

> <s_m_job_name>
glide-dock_SP_tnks_mcs_fallabck

> <r_i_docking_score>
-10.0327887323297

> <r_i_glide_gscore>
-10.0327887323297

> <r_i_glide_emodel>
-34.8126558937637

$$$$
3b
                    3D
 Schrodinger Suite 2021-4.
 39 41  0  0  1  0            999 V2000
  -14.4444  -14.8338  -27.6862 C   0  0  0  0  0  0
  -15.0251  -15.6306  -26.6897 C   0  0  0  0  0  0
  -14.5286  -13.4381  -27.5926 C   0  0  0  0  0  0
  -15.7437  -15.0334  -25.6272 C   0  0  0  0  0  0
  -14.8482  -17.0132  -26.7549 N   0  0  0  0  0  0
  -15.2367  -12.8379  -26.5361 C   0  0  0  0  0  0
  -15.8537  -13.6334  -25.5531 C   0  0  0  0  0  0
  -16.3611  -15.9515  -24.6101 C   0  0  0  0  0  0
  -16.1066  -17.2510  -24.8195 N   0  0  0  0  0  0
  -17.0594  -15.5772  -23.6673 O   0  0  0  0  0  0
  -15.3580  -17.7968  -25.8562 C   0  0  0  0  0  0
  -15.1991  -19.2692  -25.9382 C   0  0  0  0  0  0
  -14.7815  -19.8479  -27.1397 C   0  0  0  0  0  0
  -14.5637  -21.2254  -27.2146 C   0  0  0  0  0  0
  -14.7773  -22.0599  -26.0975 C   0  0  0  0  0  0
  -15.2270  -21.4677  -24.9011 C   0  0  0  0  0  0
  -15.4393  -20.0862  -24.8180 C   0  0  0  0  0  0
  -15.3228  -11.5068  -26.4887 F   0  0  0  0  0  0
  -14.4853  -23.5717  -26.1454 C   0  0  0  0  0  0
  -13.2196  -23.8385  -25.2974 C   0  0  0  0  0  0
  -14.1946  -24.0838  -27.5585 C   0  0  0  0  0  0
  -15.7351  -24.3340  -25.6633 C   0  0  0  0  0  0
  -13.9046  -15.2809  -28.5076 H   0  0  0  0  0  0
  -14.0695  -12.8049  -28.3401 H   0  0  0  0  0  0
  -16.4061  -13.1651  -24.7485 H   0  0  0  0  0  0
  -16.5318  -17.8999  -24.1781 H   0  0  0  0  0  0
  -14.5808  -19.2570  -28.0116 H   0  0  0  0  0  0
  -14.2003  -21.5727  -28.1623 H   0  0  0  0  0  0
  -15.4022  -22.0708  -24.0255 H   0  0  0  0  0  0
  -15.7804  -19.6778  -23.8830 H   0  0  0  0  0  0
  -12.8465  -24.8661  -25.3511 H   0  0  0  0  0  0
  -13.3826  -23.5971  -24.2460 H   0  0  0  0  0  0
  -12.4034  -23.2071  -25.6453 H   0  0  0  0  0  0
  -15.0393  -23.9204  -28.2288 H   0  0  0  0  0  0
  -13.3166  -23.5710  -27.9382 H   0  0  0  0  0  0
  -13.9918  -25.1570  -27.5672 H   0  0  0  0  0  0
  -16.5990  -24.0478  -26.2691 H   0  0  0  0  0  0
  -15.6482  -25.4130  -25.7767 H   0  0  0  0  0  0
  -15.9697  -24.1250  -24.6198 H   0  0  0  0  0  0
  1  2  2  0  0  0
  1  3  1  0  0  0
  1 23  1  0  0  0
  2  4  1  0  0  0
  2  5  1  0  0  0
  3  6  2  0  0  0
  3 24  1  0  0  0
  4  7  2  0  0  0
  4  8  1  0  0  0
  5 11  2  0  0  0
  6  7  1  0  0  0
  6 18  1  0  0  0
  7 25  1  0  0  0
  8  9  1  0  0  0
  8 10  2  0  0  0
  9 11  1  0  0  0
  9 26  1  0  0  0
 11 12  1  0  0  0
 12 13  2  0  0  0
 12 17  1  0  0  0
 13 14  1  0  0  0
 13 27  1  0  0  0
 14 15  2  0  0  0
 14 28  1  0  0  0
 15 16  1  0  0  0
 15 19  1  0  0  0
 16 17  2  0  0  0
 16 29  1  0  0  0
 17 30  1  0  0  0
 19 20  1  0  0  0
 19 21  1  0  0  0
 19 22  1  0  0  0
 20 31  1  0  0  0
 20 32  1  0  0  0
 20 33  1  0  0  0
 21 34  1  0  0  0
 21 35  1  0  0  0
 21 36  1  0  0  0
 22 37  1  0  0  0
 22 38  1  0  0  0
 22 39  1  0  0  0
M  END
> <s_m_entry_id>
512

> <Name>
3b

> <IC50[nM]>
3.6

> <s_m_Source_Path>
/projects/mai/users/kmzp800_harry/pmx_colab/docking_jobs/tnks2

> <s_m_Source_File>
tnks2_lig.sdf

> <i_m_Source_File_Index>
6

> <s_m_job_name>
glide-dock_SP_tnks_mcs_fallabck

> <r_i_docking_score>
-9.90735316774517

> <r_i_glide_gscore>
-9.90735316774517

> <r_i_glide_emodel>
-37.3897415649655

$$$$
5g
                    3D
 Schrodinger Suite 2021-4.
 37 39  0  0  1  0            999 V2000
  -14.4617  -14.7587  -27.6418 C   0  0  0  0  0  0
  -15.0321  -15.6163  -26.6822 C   0  0  0  0  0  0
  -14.5572  -13.3751  -27.5414 C   0  0  0  0  0  0
  -15.7498  -15.0275  -25.6110 C   0  0  0  0  0  0
  -14.8485  -17.0031  -26.7601 N   0  0  0  0  0  0
  -15.2535  -12.7993  -26.4806 C   0  0  0  0  0  0
  -15.8656  -13.6223  -25.5106 C   0  0  0  0  0  0
  -16.3670  -15.9498  -24.6038 C   0  0  0  0  0  0
  -16.1246  -17.2450  -24.8120 N   0  0  0  0  0  0
  -17.0505  -15.5737  -23.6589 O   0  0  0  0  0  0
  -15.3669  -17.7786  -25.8526 C   0  0  0  0  0  0
  -15.2026  -19.2515  -25.9333 C   0  0  0  0  0  0
  -15.4433  -20.0804  -24.8185 C   0  0  0  0  0  0
  -15.2144  -21.4645  -24.9029 C   0  0  0  0  0  0
  -14.7522  -22.0402  -26.1071 C   0  0  0  0  0  0
  -14.5441  -21.2055  -27.2188 C   0  0  0  0  0  0
  -14.7796  -19.8328  -27.1383 C   0  0  0  0  0  0
  -14.4594  -23.5302  -26.1877 C   0  0  0  0  0  0
  -14.1714  -23.9756  -27.5074 O   0  0  0  0  0  0
  -13.1890  -23.8325  -25.3831 C   0  0  0  0  0  0
  -15.6962  -24.3125  -25.7062 C   0  0  0  0  0  0
  -13.6482  -15.1727  -29.0512 Cl  0  0  0  0  0  0
  -14.1026  -12.7322  -28.2828 H   0  0  0  0  0  0
  -15.3195  -11.7249  -26.4103 H   0  0  0  0  0  0
  -16.4103  -13.1740  -24.6908 H   0  0  0  0  0  0
  -16.5740  -17.8882  -24.1726 H   0  0  0  0  0  0
  -15.7701  -19.6692  -23.8745 H   0  0  0  0  0  0
  -15.3729  -22.0752  -24.0268 H   0  0  0  0  0  0
  -14.1602  -21.5727  -28.1520 H   0  0  0  0  0  0
  -14.5845  -19.2280  -28.0112 H   0  0  0  0  0  0
  -14.9421  -23.8460  -28.0377 H   0  0  0  0  0  0
  -12.3739  -23.1841  -25.7021 H   0  0  0  0  0  0
  -12.8482  -24.8560  -25.5330 H   0  0  0  0  0  0
  -13.3340  -23.6717  -24.3148 H   0  0  0  0  0  0
  -16.5776  -23.9700  -26.2504 H   0  0  0  0  0  0
  -15.6047  -25.3741  -25.9382 H   0  0  0  0  0  0
  -15.8846  -24.2026  -24.6385 H   0  0  0  0  0  0
  1  2  2  0  0  0
  1  3  1  0  0  0
  1 22  1  0  0  0
  2  4  1  0  0  0
  2  5  1  0  0  0
  3  6  2  0  0  0
  3 23  1  0  0  0
  4  7  2  0  0  0
  4  8  1  0  0  0
  5 11  2  0  0  0
  6  7  1  0  0  0
  6 24  1  0  0  0
  7 25  1  0  0  0
  8  9  1  0  0  0
  8 10  2  0  0  0
  9 11  1  0  0  0
  9 26  1  0  0  0
 11 12  1  0  0  0
 12 13  2  0  0  0
 12 17  1  0  0  0
 13 14  1  0  0  0
 13 27  1  0  0  0
 14 15  2  0  0  0
 14 28  1  0  0  0
 15 16  1  0  0  0
 15 18  1  0  0  0
 16 17  2  0  0  0
 16 29  1  0  0  0
 17 30  1  0  0  0
 18 19  1  0  0  0
 18 20  1  0  0  0
 18 21  1  0  0  0
 19 31  1  0  0  0
 20 32  1  0  0  0
 20 33  1  0  0  0
 20 34  1  0  0  0
 21 35  1  0  0  0
 21 36  1  0  0  0
 21 37  1  0  0  0
M  END
> <s_m_entry_id>
513

> <Name>
5g

> <IC50[nM]>
12

> <s_m_Source_Path>
/projects/mai/users/kmzp800_harry/pmx_colab/docking_jobs/tnks2

> <s_m_Source_File>
tnks2_lig.sdf

> <i_m_Source_File_Index>
13

> <s_m_job_name>
glide-dock_SP_tnks_mcs_fallabck

> <r_i_docking_score>
-9.90103944191771

> <r_i_glide_gscore>
-9.90103944191771

> <r_i_glide_emodel>
-32.5415604368328

$$$$
1b
                    3D
 Schrodinger Suite 2021-4.
 31 33  0  0  1  0            999 V2000
  -15.2026  -19.2594  -25.9344 C   0  0  0  0  0  0
  -14.7813  -19.8464  -27.1386 C   0  0  0  0  0  0
  -15.4515  -20.0889  -24.8202 C   0  0  0  0  0  0
  -14.5541  -21.2237  -27.2164 C   0  0  0  0  0  0
  -15.2439  -21.4775  -24.9112 C   0  0  0  0  0  0
  -14.8493  -17.0009  -26.7559 N   0  0  0  0  0  0
  -14.7837  -22.0633  -26.1044 C   0  0  0  0  0  0
  -15.0356  -15.6127  -26.6843 C   0  0  0  0  0  0
  -15.7601  -15.0238  -25.6204 C   0  0  0  0  0  0
  -15.2482  -12.8099  -26.4999 C   0  0  0  0  0  0
  -14.5357  -13.3948  -27.5607 C   0  0  0  0  0  0
  -15.8762  -13.6208  -25.5338 C   0  0  0  0  0  0
  -14.4481  -14.7939  -27.6638 C   0  0  0  0  0  0
  -16.3735  -15.9476  -24.6131 C   0  0  0  0  0  0
  -16.1165  -17.2436  -24.8119 N   0  0  0  0  0  0
  -15.3634  -17.7808  -25.8511 C   0  0  0  0  0  0
  -17.0633  -15.5727  -23.6723 O   0  0  0  0  0  0
  -14.5721  -19.2438  -28.0101 H   0  0  0  0  0  0
  -15.7978  -19.6791  -23.8856 H   0  0  0  0  0  0
  -14.1775  -21.5727  -28.1563 H   0  0  0  0  0  0
  -15.4280  -22.0998  -24.0510 H   0  0  0  0  0  0
  -14.0671  -12.7703  -28.3064 H   0  0  0  0  0  0
  -16.4304  -13.1652  -24.7268 H   0  0  0  0  0  0
  -16.5474  -17.8950  -24.1679 H   0  0  0  0  0  0
  -13.8985  -15.2410  -28.4792 H   0  0  0  0  0  0
  -15.3172  -11.7360  -26.4381 H   0  0  0  0  0  0
  -14.5840  -23.4254  -26.1037 O   0  0  0  0  0  0
  -14.1700  -24.0394  -27.3137 C   0  0  0  0  0  0
  -14.0542  -25.1109  -27.1520 H   0  0  0  0  0  0
  -13.2077  -23.6519  -27.6520 H   0  0  0  0  0  0
  -14.9164  -23.9086  -28.0974 H   0  0  0  0  0  0
  1  2  2  0  0  0
  1  3  1  0  0  0
  1 16  1  0  0  0
  2  4  1  0  0  0
  2 18  1  0  0  0
  3  5  2  0  0  0
  3 19  1  0  0  0
  4  7  2  0  0  0
  4 20  1  0  0  0
  5  7  1  0  0  0
  5 21  1  0  0  0
  6  8  1  0  0  0
  6 16  2  0  0  0
  7 27  1  0  0  0
  8  9  2  0  0  0
  8 13  1  0  0  0
  9 12  1  0  0  0
  9 14  1  0  0  0
 10 11  1  0  0  0
 10 12  2  0  0  0
 10 26  1  0  0  0
 11 13  2  0  0  0
 11 22  1  0  0  0
 12 23  1  0  0  0
 13 25  1  0  0  0
 14 15  1  0  0  0
 14 17  2  0  0  0
 15 16  1  0  0  0
 15 24  1  0  0  0
 27 28  1  0  0  0
 28 29  1  0  0  0
 28 30  1  0  0  0
 28 31  1  0  0  0
M  END
> <s_m_entry_id>
514

> <Name>
1b

> <IC50[nM]>
52

> <s_m_Source_Path>
/projects/mai/users/kmzp800_harry/pmx_colab/docking_jobs/tnks2

> <s_m_Source_File>
tnks2_lig.sdf

> <i_m_Source_File_Index>
7

> <s_m_job_name>
glide-dock_SP_tnks_mcs_fallabck

> <r_i_docking_score>
-9.8001322405044

> <r_i_glide_gscore>
-9.8001322405044

> <r_i_glide_emodel>
-58.8566522022364

$$$$
8d
                    3D
 Schrodinger Suite 2021-4.
 46 49  0  0  1  0            999 V2000
  -14.4402  -14.7813  -27.6651 C   0  0  0  0  0  0
  -15.0369  -15.6119  -26.6857 C   0  0  0  0  0  0
  -14.5271  -13.3978  -27.5652 C   0  0  0  0  0  0
  -15.7653  -15.0228  -25.6240 C   0  0  0  0  0  0
  -14.8482  -17.0000  -26.7391 N   0  0  0  0  0  0
  -15.2484  -12.8277  -26.5245 C   0  0  0  0  0  0
  -15.8813  -13.6180  -25.5449 C   0  0  0  0  0  0
  -16.3803  -15.9463  -24.6109 C   0  0  0  0  0  0
  -16.1297  -17.2460  -24.8140 N   0  0  0  0  0  0
  -17.0604  -15.5727  -23.6620 O   0  0  0  0  0  0
  -15.3735  -17.7857  -25.8491 C   0  0  0  0  0  0
  -15.2087  -19.2609  -25.9354 C   0  0  0  0  0  0
  -15.4459  -20.0918  -24.8192 C   0  0  0  0  0  0
  -15.2325  -21.4816  -24.9089 C   0  0  0  0  0  0
  -14.7757  -22.0561  -26.1128 C   0  0  0  0  0  0
  -14.5649  -21.2183  -27.2237 C   0  0  0  0  0  0
  -14.7774  -19.8416  -27.1405 C   0  0  0  0  0  0
  -13.6458  -15.3086  -28.8243 C   0  0  0  0  0  0
  -15.3253  -11.4997  -26.4973 F   0  0  0  0  0  0
  -14.4921  -23.5505  -26.2051 C   0  0  0  0  0  0
  -15.5024  -24.2570  -27.1295 C   0  0  0  0  0  0
  -15.1639  -25.7433  -27.3155 C   0  0  0  0  0  0
  -13.7806  -25.9099  -27.8079 N   0  3  0  0  0  0
  -12.7874  -25.3279  -26.8839 C   0  0  0  0  0  0
  -13.0476  -23.8265  -26.6783 C   0  0  0  0  0  0
  -14.0565  -12.7556  -28.2984 H   0  0  0  0  0  0
  -16.4375  -13.1530  -24.7399 H   0  0  0  0  0  0
  -16.5688  -17.8859  -24.1695 H   0  0  0  0  0  0
  -15.7795  -19.6777  -23.8794 H   0  0  0  0  0  0
  -15.4102  -22.1004  -24.0414 H   0  0  0  0  0  0
  -14.1933  -21.5746  -28.1641 H   0  0  0  0  0  0
  -14.5854  -19.2340  -28.0129 H   0  0  0  0  0  0
  -13.6958  -16.3727  -28.7823 H   0  0  0  0  0  0
  -14.0482  -14.9769  -29.7779 H   0  0  0  0  0  0
  -12.6045  -15.0125  -28.7826 H   0  0  0  0  0  0
  -14.5997  -23.9673  -25.2025 H   0  0  0  0  0  0
  -16.5090  -24.1513  -26.7269 H   0  0  0  0  0  0
  -15.5108  -23.7712  -28.1036 H   0  0  0  0  0  0
  -15.2825  -26.2777  -26.3727 H   0  0  0  0  0  0
  -15.8547  -26.2058  -28.0195 H   0  0  0  0  0  0
  -13.5856  -26.8961  -27.9202 H   0  0  0  0  0  0
  -12.8473  -25.8607  -25.9385 H   0  0  0  0  0  0
  -11.7812  -25.4906  -27.2754 H   0  0  0  0  0  0
  -12.8503  -23.3160  -27.6194 H   0  0  0  0  0  0
  -12.3380  -23.4210  -25.9548 H   0  0  0  0  0  0
  -13.6968  -25.4525  -28.7045 H   0  0  0  0  0  0
  1  2  2  0  0  0
  1  3  1  0  0  0
  1 18  1  0  0  0
  2  4  1  0  0  0
  2  5  1  0  0  0
  3  6  2  0  0  0
  3 26  1  0  0  0
  4  7  2  0  0  0
  4  8  1  0  0  0
  5 11  2  0  0  0
  6  7  1  0  0  0
  6 19  1  0  0  0
  7 27  1  0  0  0
  8  9  1  0  0  0
  8 10  2  0  0  0
  9 11  1  0  0  0
  9 28  1  0  0  0
 11 12  1  0  0  0
 12 13  2  0  0  0
 12 17  1  0  0  0
 13 14  1  0  0  0
 13 29  1  0  0  0
 14 15  2  0  0  0
 14 30  1  0  0  0
 15 16  1  0  0  0
 15 20  1  0  0  0
 16 17  2  0  0  0
 16 31  1  0  0  0
 17 32  1  0  0  0
 18 33  1  0  0  0
 18 34  1  0  0  0
 18 35  1  0  0  0
 20 21  1  0  0  0
 20 25  1  0  0  0
 20 36  1  0  0  0
 21 22  1  0  0  0
 21 37  1  0  0  0
 21 38  1  0  0  0
 22 23  1  0  0  0
 22 39  1  0  0  0
 22 40  1  0  0  0
 23 24  1  0  0  0
 23 41  1  0  0  0
 23 46  1  0  0  0
 24 25  1  0  0  0
 24 42  1  0  0  0
 24 43  1  0  0  0
 25 44  1  0  0  0
 25 45  1  0  0  0
M  CHG  1  23   1
M  END
> <s_m_entry_id>
515

> <Name>
8d

> <IC50[nM]>
0.7

> <s_m_Source_Path>
/projects/mai/users/kmzp800_harry/pmx_colab/docking_jobs/tnks2

> <s_m_Source_File>
tnks2_lig.sdf

> <i_m_Source_File_Index>
4

> <s_m_job_name>
glide-dock_SP_tnks_mcs_fallabck

> <r_i_docking_score>
-9.77384938848662

> <r_i_glide_gscore>
-9.77384938848662

> <r_i_glide_emodel>
-31.3972926334697

$$$$
5k
                    3D
 Schrodinger Suite 2021-4.
 37 39  0  0  1  0            999 V2000
  -14.4386  -14.8285  -27.6855 C   0  0  0  0  0  0
  -15.0337  -15.6377  -26.6980 C   0  0  0  0  0  0
  -14.5222  -13.4378  -27.5916 C   0  0  0  0  0  0
  -15.7592  -15.0410  -25.6378 C   0  0  0  0  0  0
  -14.8482  -17.0239  -26.7563 N   0  0  0  0  0  0
  -15.2356  -12.8434  -26.5363 C   0  0  0  0  0  0
  -15.8637  -13.6414  -25.5585 C   0  0  0  0  0  0
  -16.3761  -15.9566  -24.6228 C   0  0  0  0  0  0
  -16.1218  -17.2539  -24.8153 N   0  0  0  0  0  0
  -17.0667  -15.5727  -23.6857 O   0  0  0  0  0  0
  -15.3640  -17.7970  -25.8494 C   0  0  0  0  0  0
  -15.2114  -19.2673  -25.9333 C   0  0  0  0  0  0
  -14.7725  -19.8403  -27.1384 C   0  0  0  0  0  0
  -14.5541  -21.2120  -27.2237 C   0  0  0  0  0  0
  -14.7596  -22.0447  -26.1091 C   0  0  0  0  0  0
  -15.2267  -21.4718  -24.9105 C   0  0  0  0  0  0
  -15.4491  -20.0901  -24.8142 C   0  0  0  0  0  0
  -14.4551  -23.5352  -26.1795 C   0  0  0  0  0  0
  -14.1663  -23.9687  -27.5016 O   0  0  0  0  0  0
  -13.7385  -15.3799  -28.7073 F   0  0  0  0  0  0
  -15.3262  -11.5125  -26.4834 F   0  0  0  0  0  0
  -13.1799  -23.8168  -25.3543 C   0  0  0  0  0  0
  -15.6982  -24.3217  -25.7072 C   0  0  0  0  0  0
  -14.0513  -12.8105  -28.3314 H   0  0  0  0  0  0
  -16.4160  -13.1729  -24.7540 H   0  0  0  0  0  0
  -16.5636  -17.8967  -24.1771 H   0  0  0  0  0  0
  -14.5815  -19.2336  -28.0085 H   0  0  0  0  0  0
  -14.1657  -21.5715  -28.1568 H   0  0  0  0  0  0
  -15.4046  -22.0848  -24.0406 H   0  0  0  0  0  0
  -15.8030  -19.6836  -23.8809 H   0  0  0  0  0  0
  -14.9291  -23.8219  -28.0403 H   0  0  0  0  0  0
  -12.3533  -23.2122  -25.7318 H   0  0  0  0  0  0
  -12.8489  -24.8564  -25.3890 H   0  0  0  0  0  0
  -13.3280  -23.5465  -24.3067 H   0  0  0  0  0  0
  -16.5698  -24.0437  -26.3059 H   0  0  0  0  0  0
  -15.5857  -25.3947  -25.8684 H   0  0  0  0  0  0
  -15.9362  -24.1376  -24.6606 H   0  0  0  0  0  0
  1  2  2  0  0  0
  1  3  1  0  0  0
  1 20  1  0  0  0
  2  4  1  0  0  0
  2  5  1  0  0  0
  3  6  2  0  0  0
  3 24  1  0  0  0
  4  7  2  0  0  0
  4  8  1  0  0  0
  5 11  2  0  0  0
  6  7  1  0  0  0
  6 21  1  0  0  0
  7 25  1  0  0  0
  8  9  1  0  0  0
  8 10  2  0  0  0
  9 11  1  0  0  0
  9 26  1  0  0  0
 11 12  1  0  0  0
 12 13  2  0  0  0
 12 17  1  0  0  0
 13 14  1  0  0  0
 13 27  1  0  0  0
 14 15  2  0  0  0
 14 28  1  0  0  0
 15 16  1  0  0  0
 15 18  1  0  0  0
 16 17  2  0  0  0
 16 29  1  0  0  0
 17 30  1  0  0  0
 18 19  1  0  0  0
 18 22  1  0  0  0
 18 23  1  0  0  0
 19 31  1  0  0  0
 22 32  1  0  0  0
 22 33  1  0  0  0
 22 34  1  0  0  0
 23 35  1  0  0  0
 23 36  1  0  0  0
 23 37  1  0  0  0
M  END
> <s_m_entry_id>
516

> <Name>
5k

> <IC50[nM]>
9.2

> <s_m_Source_Path>
/projects/mai/users/kmzp800_harry/pmx_colab/docking_jobs/tnks2

> <s_m_Source_File>
tnks2_lig.sdf

> <i_m_Source_File_Index>
11

> <s_m_job_name>
glide-dock_SP_tnks_mcs_fallabck

> <r_i_docking_score>
-9.74355614404143

> <r_i_glide_gscore>
-9.74355614404143

> <r_i_glide_emodel>
-33.0313248580684

$$$$
5m
                    3D
 Schrodinger Suite 2021-4.
 40 42  0  0  1  0            999 V2000
  -15.2025  -19.2615  -25.9367 C   0  0  0  0  0  0
  -15.4381  -20.0908  -24.8186 C   0  0  0  0  0  0
  -14.7818  -19.8481  -27.1437 C   0  0  0  0  0  0
  -15.2234  -21.4729  -24.9033 C   0  0  0  0  0  0
  -14.5304  -21.2161  -27.2114 C   0  0  0  0  0  0
  -14.8466  -17.0041  -26.7418 N   0  0  0  0  0  0
  -14.7434  -22.0517  -26.0955 C   0  0  0  0  0  0
  -14.4519  -23.5440  -26.1680 C   0  0  0  0  0  0
  -15.0260  -15.6149  -26.6659 C   0  0  0  0  0  0
  -15.7403  -15.0212  -25.5940 C   0  0  0  0  0  0
  -15.2275  -12.8381  -26.4898 C   0  0  0  0  0  0
  -14.5168  -13.4054  -27.5422 C   0  0  0  0  0  0
  -15.8550  -13.6164  -25.5037 C   0  0  0  0  0  0
  -14.4480  -14.7926  -27.6575 C   0  0  0  0  0  0
  -16.3660  -15.9454  -24.5978 C   0  0  0  0  0  0
  -16.1260  -17.2406  -24.8109 N   0  0  0  0  0  0
  -15.3678  -17.7819  -25.8414 C   0  0  0  0  0  0
  -17.0525  -15.5734  -23.6530 O   0  0  0  0  0  0
  -13.1912  -23.8666  -25.3262 C   0  0  0  0  0  0
  -14.1690  -23.9660  -27.5014 O   0  0  0  0  0  0
  -15.7095  -24.3236  -25.7094 C   0  0  0  0  0  0
  -13.8150  -15.3683  -28.8847 C   0  0  0  0  0  0
  -15.3289  -11.5147  -26.4821 F   0  0  0  0  0  0
  -15.7635  -19.6770  -23.8782 H   0  0  0  0  0  0
  -14.5813  -19.2438  -28.0158 H   0  0  0  0  0  0
  -15.3896  -22.0798  -24.0253 H   0  0  0  0  0  0
  -14.1325  -21.5728  -28.1411 H   0  0  0  0  0  0
  -14.0764  -12.7676  -28.2978 H   0  0  0  0  0  0
  -16.4086  -13.1453  -24.7038 H   0  0  0  0  0  0
  -16.5764  -17.8861  -24.1713 H   0  0  0  0  0  0
  -12.3680  -23.2076  -25.6003 H   0  0  0  0  0  0
  -12.8474  -24.8811  -25.5162 H   0  0  0  0  0  0
  -13.3753  -23.7479  -24.2571 H   0  0  0  0  0  0
  -14.9354  -23.8050  -28.0324 H   0  0  0  0  0  0
  -16.5610  -24.0019  -26.3176 H   0  0  0  0  0  0
  -15.6037  -25.3826  -25.9380 H   0  0  0  0  0  0
  -15.9441  -24.2060  -24.6506 H   0  0  0  0  0  0
  -13.8940  -14.6876  -29.7310 H   0  0  0  0  0  0
  -12.7779  -15.5712  -28.7004 H   0  0  0  0  0  0
  -14.2978  -16.3085  -29.1399 H   0  0  0  0  0  0
  1  2  2  0  0  0
  1  3  1  0  0  0
  1 17  1  0  0  0
  2  4  1  0  0  0
  2 24  1  0  0  0
  3  5  2  0  0  0
  3 25  1  0  0  0
  4  7  2  0  0  0
  4 26  1  0  0  0
  5  7  1  0  0  0
  5 27  1  0  0  0
  6  9  1  0  0  0
  6 17  2  0  0  0
  7  8  1  0  0  0
  8 19  1  0  0  0
  8 20  1  0  0  0
  8 21  1  0  0  0
  9 10  2  0  0  0
  9 14  1  0  0  0
 10 13  1  0  0  0
 10 15  1  0  0  0
 11 12  1  0  0  0
 11 13  2  0  0  0
 11 23  1  0  0  0
 12 14  2  0  0  0
 12 28  1  0  0  0
 13 29  1  0  0  0
 14 22  1  0  0  0
 15 16  1  0  0  0
 15 18  2  0  0  0
 16 17  1  0  0  0
 16 30  1  0  0  0
 19 31  1  0  0  0
 19 32  1  0  0  0
 19 33  1  0  0  0
 20 34  1  0  0  0
 21 35  1  0  0  0
 21 36  1  0  0  0
 21 37  1  0  0  0
 22 38  1  0  0  0
 22 39  1  0  0  0
 22 40  1  0  0  0
M  END
> <s_m_entry_id>
517

> <Name>
5m

> <IC50[nM]>
0.5

> <s_m_Source_Path>
/projects/mai/users/kmzp800_harry/pmx_colab/docking_jobs/tnks2

> <s_m_Source_File>
tnks2_lig.sdf

> <i_m_Source_File_Index>
19

> <s_m_job_name>
glide-dock_SP_tnks_mcs_fallabck

> <r_i_docking_score>
-9.74203890284687

> <r_i_glide_gscore>
-9.74203890284687

> <r_i_glide_emodel>
-33.0210718837317

$$$$
7
                    3D
 Schrodinger Suite 2021-4.
 36 38  0  0  1  0            999 V2000
  -15.1765  -19.2488  -25.9271 C   0  0  0  0  0  0
  -14.8500  -19.7924  -27.1080 N   0  0  0  0  0  0
  -15.2856  -19.9674  -24.7238 C   0  0  0  0  0  0
  -15.3619  -17.7917  -25.8643 C   0  0  0  0  0  0
  -14.7054  -21.1172  -27.1575 C   0  0  0  0  0  0
  -15.0987  -21.3380  -24.7725 C   0  0  0  0  0  0
  -14.8562  -21.9349  -26.0333 C   0  0  0  0  0  0
  -16.1394  -17.2596  -24.8276 N   0  0  0  0  0  0
  -16.3807  -15.9596  -24.6230 C   0  0  0  0  0  0
  -14.8486  -17.0216  -26.7722 N   0  0  0  0  0  0
  -15.0320  -15.6417  -26.6888 C   0  0  0  0  0  0
  -15.7517  -15.0481  -25.6277 C   0  0  0  0  0  0
  -15.8795  -13.6465  -25.5545 C   0  0  0  0  0  0
  -15.2488  -12.8514  -26.5305 C   0  0  0  0  0  0
  -14.5279  -13.4418  -27.5820 C   0  0  0  0  0  0
  -14.4446  -14.8395  -27.6816 C   0  0  0  0  0  0
  -17.0552  -15.5717  -23.6789 O   0  0  0  0  0  0
  -14.7622  -23.4270  -26.1622 C   0  0  0  0  0  0
  -15.2685  -23.9725  -24.9946 O   0  0  0  0  0  0
  -15.3258  -11.5071  -26.4895 F   0  0  0  0  0  0
  -13.3013  -23.8764  -26.3350 C   0  0  0  0  0  0
  -15.6618  -23.9898  -27.2828 C   0  0  0  0  0  0
  -15.5020  -19.5031  -23.7762 H   0  0  0  0  0  0
  -14.4478  -21.5411  -28.1115 H   0  0  0  0  0  0
  -15.1687  -21.8919  -23.8556 H   0  0  0  0  0  0
  -16.5752  -17.9125  -24.1821 H   0  0  0  0  0  0
  -16.4447  -13.2029  -24.7512 H   0  0  0  0  0  0
  -14.0622  -12.8198  -28.3321 H   0  0  0  0  0  0
  -13.9009  -15.2937  -28.5015 H   0  0  0  0  0  0
  -12.8809  -23.4920  -27.2639 H   0  0  0  0  0  0
  -13.2181  -24.9664  -26.3599 H   0  0  0  0  0  0
  -12.6782  -23.5165  -25.5175 H   0  0  0  0  0  0
  -15.3402  -23.6515  -28.2829 H   0  0  0  0  0  0
  -15.6343  -25.0833  -27.3018 H   0  0  0  0  0  0
  -16.7114  -23.6922  -27.1461 H   0  0  0  0  0  0
  -16.2140  -23.8951  -25.0177 H   0  0  0  0  0  0
  1  2  2  0  0  0
  1  3  1  0  0  0
  1  4  1  0  0  0
  2  5  1  0  0  0
  3  6  2  0  0  0
  3 23  1  0  0  0
  4  8  1  0  0  0
  4 10  2  0  0  0
  5  7  2  0  0  0
  5 24  1  0  0  0
  6  7  1  0  0  0
  6 25  1  0  0  0
  7 18  1  0  0  0
  8  9  1  0  0  0
  8 26  1  0  0  0
  9 12  1  0  0  0
  9 17  2  0  0  0
 10 11  1  0  0  0
 11 12  2  0  0  0
 11 16  1  0  0  0
 12 13  1  0  0  0
 13 14  2  0  0  0
 13 27  1  0  0  0
 14 15  1  0  0  0
 14 20  1  0  0  0
 15 16  2  0  0  0
 15 28  1  0  0  0
 16 29  1  0  0  0
 18 19  1  0  0  0
 18 21  1  0  0  0
 18 22  1  0  0  0
 19 36  1  0  0  0
 21 30  1  0  0  0
 21 31  1  0  0  0
 21 32  1  0  0  0
 22 33  1  0  0  0
 22 34  1  0  0  0
 22 35  1  0  0  0
M  END
> <s_m_entry_id>
518

> <Name>
7

> <IC50[nM]>
700

> <s_m_Source_Path>
/projects/mai/users/kmzp800_harry/pmx_colab/docking_jobs/tnks2

> <s_m_Source_File>
tnks2_lig.sdf

> <i_m_Source_File_Index>
16

> <s_m_job_name>
glide-dock_SP_tnks_mcs_fallabck

> <r_i_docking_score>
-9.66024052887325

> <r_i_glide_gscore>
-9.66024052887325

> <r_i_glide_emodel>
-41.0888818237156

$$$$
5d
                    3D
 Schrodinger Suite 2021-4.
 37 39  0  0  1  0            999 V2000
  -14.4384  -14.8413  -27.6828 C   0  0  0  0  0  0
  -15.0289  -15.6383  -26.6875 C   0  0  0  0  0  0
  -14.5252  -13.4432  -27.5935 C   0  0  0  0  0  0
  -15.7545  -15.0399  -25.6296 C   0  0  0  0  0  0
  -14.8485  -17.0204  -26.7489 N   0  0  0  0  0  0
  -15.2365  -12.8495  -26.5415 C   0  0  0  0  0  0
  -15.8606  -13.6362  -25.5606 C   0  0  0  0  0  0
  -15.3257  -11.5107  -26.4861 F   0  0  0  0  0  0
  -16.3799  -15.9522  -24.6141 C   0  0  0  0  0  0
  -16.1232  -17.2496  -24.8150 N   0  0  0  0  0  0
  -17.0801  -15.5728  -23.6804 O   0  0  0  0  0  0
  -15.3752  -17.7935  -25.8505 C   0  0  0  0  0  0
  -15.2254  -19.2664  -25.9375 C   0  0  0  0  0  0
  -15.4684  -20.0924  -24.8260 C   0  0  0  0  0  0
  -15.2376  -21.4721  -24.9205 C   0  0  0  0  0  0
  -14.7647  -22.0481  -26.1184 C   0  0  0  0  0  0
  -14.5550  -21.2096  -27.2278 C   0  0  0  0  0  0
  -14.7804  -19.8430  -27.1443 C   0  0  0  0  0  0
  -14.4569  -23.5415  -26.1894 C   0  0  0  0  0  0
  -14.1710  -23.9745  -27.5128 O   0  0  0  0  0  0
  -13.1869  -23.8284  -25.3540 C   0  0  0  0  0  0
  -15.6972  -24.3199  -25.7047 C   0  0  0  0  0  0
  -13.8893  -15.2949  -28.5001 H   0  0  0  0  0  0
  -14.0584  -12.8183  -28.3406 H   0  0  0  0  0  0
  -16.4107  -13.1649  -24.7596 H   0  0  0  0  0  0
  -16.5533  -17.8996  -24.1728 H   0  0  0  0  0  0
  -15.8170  -19.6840  -23.8918 H   0  0  0  0  0  0
  -15.4111  -22.0801  -24.0488 H   0  0  0  0  0  0
  -14.1696  -21.5728  -28.1618 H   0  0  0  0  0  0
  -14.6042  -19.2388  -28.0141 H   0  0  0  0  0  0
  -13.9479  -24.8927  -27.5027 H   0  0  0  0  0  0
  -12.3479  -23.2480  -25.7368 H   0  0  0  0  0  0
  -12.8542  -24.8698  -25.3595 H   0  0  0  0  0  0
  -13.3331  -23.5335  -24.3132 H   0  0  0  0  0  0
  -16.5710  -24.0674  -26.3105 H   0  0  0  0  0  0
  -15.5790  -25.3957  -25.8042 H   0  0  0  0  0  0
  -15.9389  -24.0904  -24.6677 H   0  0  0  0  0  0
  1  2  2  0  0  0
  1  3  1  0  0  0
  1 23  1  0  0  0
  2  4  1  0  0  0
  2  5  1  0  0  0
  3  6  2  0  0  0
  3 24  1  0  0  0
  4  7  2  0  0  0
  4  9  1  0  0  0
  5 12  2  0  0  0
  6  7  1  0  0  0
  6  8  1  0  0  0
  7 25  1  0  0  0
  9 10  1  0  0  0
  9 11  2  0  0  0
 10 12  1  0  0  0
 10 26  1  0  0  0
 12 13  1  0  0  0
 13 14  2  0  0  0
 13 18  1  0  0  0
 14 15  1  0  0  0
 14 27  1  0  0  0
 15 16  2  0  0  0
 15 28  1  0  0  0
 16 17  1  0  0  0
 16 19  1  0  0  0
 17 18  2  0  0  0
 17 29  1  0  0  0
 18 30  1  0  0  0
 19 20  1  0  0  0
 19 21  1  0  0  0
 19 22  1  0  0  0
 20 31  1  0  0  0
 21 32  1  0  0  0
 21 33  1  0  0  0
 21 34  1  0  0  0
 22 35  1  0  0  0
 22 36  1  0  0  0
 22 37  1  0  0  0
M  END
> <s_m_entry_id>
519

> <Name>
5d

> <IC50[nM]>
10.5

> <s_m_Source_Path>
/projects/mai/users/kmzp800_harry/pmx_colab/docking_jobs/tnks2

> <s_m_Source_File>
tnks2_lig.sdf

> <i_m_Source_File_Index>
27

> <s_m_job_name>
glide-dock_SP_tnks_mcs_fallabck

> <r_i_docking_score>
-9.64371870313959

> <r_i_glide_gscore>
-9.64371870313959

> <r_i_glide_emodel>
-32.5620362979297

$$$$
5p
                    3D
 Schrodinger Suite 2021-4.
 47 49  0  0  1  0            999 V2000
  -15.2168  -19.2748  -25.9341 C   0  0  0  0  0  0
  -14.7807  -19.8484  -27.1381 C   0  0  0  0  0  0
  -15.4626  -20.1042  -24.8209 C   0  0  0  0  0  0
  -15.3768  -17.7998  -25.8488 C   0  0  0  0  0  0
  -14.5629  -21.2259  -27.2250 C   0  0  0  0  0  0
  -15.2423  -21.4868  -24.9184 C   0  0  0  0  0  0
  -14.7820  -22.0693  -26.1207 C   0  0  0  0  0  0
  -16.1313  -17.2491  -24.8173 N   0  0  0  0  0  0
  -16.3756  -15.9532  -24.6118 C   0  0  0  0  0  0
  -14.8480  -17.0227  -26.7470 N   0  0  0  0  0  0
  -15.0314  -15.6367  -26.6797 C   0  0  0  0  0  0
  -15.7510  -15.0386  -25.6194 C   0  0  0  0  0  0
  -15.8646  -13.6366  -25.5450 C   0  0  0  0  0  0
  -15.2336  -12.8448  -26.5248 C   0  0  0  0  0  0
  -14.5267  -13.4396  -27.5808 C   0  0  0  0  0  0
  -14.4440  -14.8358  -27.6706 C   0  0  0  0  0  0
  -17.0622  -15.5728  -23.6691 O   0  0  0  0  0  0
  -14.4928  -23.5727  -26.1924 C   0  0  0  0  0  0
  -14.1502  -23.9609  -27.5365 O   0  0  0  0  0  0
  -15.3180  -11.5053  -26.4847 F   0  0  0  0  0  0
  -14.5408  -25.2223  -28.1033 C   0  0  0  0  0  0
  -13.8752  -26.4752  -27.5171 C   0  0  0  0  0  0
  -12.5865  -26.7300  -28.0323 O   0  0  0  0  0  0
  -11.6163  -25.8046  -27.5677 C   0  0  0  0  0  0
  -15.7419  -24.3238  -25.6802 C   0  0  0  0  0  0
  -13.2344  -23.8092  -25.3291 C   0  0  0  0  0  0
  -14.6217  -19.2452  -28.0170 H   0  0  0  0  0  0
  -15.7980  -19.6983  -23.8796 H   0  0  0  0  0  0
  -14.2085  -21.5891  -28.1668 H   0  0  0  0  0  0
  -15.4079  -22.0958  -24.0459 H   0  0  0  0  0  0
  -16.5619  -17.8742  -24.1439 H   0  0  0  0  0  0
  -16.4285  -13.1806  -24.7439 H   0  0  0  0  0  0
  -14.0703  -12.8198  -28.3365 H   0  0  0  0  0  0
  -13.8986  -15.2948  -28.4830 H   0  0  0  0  0  0
  -14.3016  -25.2101  -29.1632 H   0  0  0  0  0  0
  -15.6205  -25.3402  -28.0322 H   0  0  0  0  0  0
  -14.4924  -27.3356  -27.7823 H   0  0  0  0  0  0
  -13.8375  -26.4359  -26.4369 H   0  0  0  0  0  0
  -10.6468  -26.0652  -27.9833 H   0  0  0  0  0  0
  -11.5319  -25.8313  -26.4816 H   0  0  0  0  0  0
  -11.8478  -24.7853  -27.8759 H   0  0  0  0  0  0
  -15.9954  -24.0575  -24.6565 H   0  0  0  0  0  0
  -16.5977  -24.0729  -26.3035 H   0  0  0  0  0  0
  -15.6599  -25.4027  -25.6957 H   0  0  0  0  0  0
  -13.3618  -23.4694  -24.3031 H   0  0  0  0  0  0
  -12.8843  -24.8263  -25.2726 H   0  0  0  0  0  0
  -12.3951  -23.2561  -25.7394 H   0  0  0  0  0  0
  1  2  2  0  0  0
  1  3  1  0  0  0
  1  4  1  0  0  0
  2  5  1  0  0  0
  2 27  1  0  0  0
  3  6  2  0  0  0
  3 28  1  0  0  0
  4  8  1  0  0  0
  4 10  2  0  0  0
  5  7  2  0  0  0
  5 29  1  0  0  0
  6  7  1  0  0  0
  6 30  1  0  0  0
  7 18  1  0  0  0
  8  9  1  0  0  0
  8 31  1  0  0  0
  9 12  1  0  0  0
  9 17  2  0  0  0
 10 11  1  0  0  0
 11 12  2  0  0  0
 11 16  1  0  0  0
 12 13  1  0  0  0
 13 14  2  0  0  0
 13 32  1  0  0  0
 14 15  1  0  0  0
 14 20  1  0  0  0
 15 16  2  0  0  0
 15 33  1  0  0  0
 16 34  1  0  0  0
 18 19  1  0  0  0
 18 25  1  0  0  0
 18 26  1  0  0  0
 19 21  1  0  0  0
 21 22  1  0  0  0
 21 35  1  0  0  0
 21 36  1  0  0  0
 22 23  1  0  0  0
 22 37  1  0  0  0
 22 38  1  0  0  0
 23 24  1  0  0  0
 24 39  1  0  0  0
 24 40  1  0  0  0
 24 41  1  0  0  0
 25 42  1  0  0  0
 25 43  1  0  0  0
 25 44  1  0  0  0
 26 45  1  0  0  0
 26 46  1  0  0  0
 26 47  1  0  0  0
M  END
> <s_m_entry_id>
520

> <Name>
5p

> <IC50[nM]>
20

> <s_m_Source_Path>
/projects/mai/users/kmzp800_harry/pmx_colab/docking_jobs/tnks2

> <s_m_Source_File>
tnks2_lig.sdf

> <i_m_Source_File_Index>
20

> <s_m_job_name>
glide-dock_SP_tnks_mcs_fallabck

> <r_i_docking_score>
-9.45294190004776

> <r_i_glide_gscore>
-9.45294190004776

> <r_i_glide_emodel>
-36.5335870539112

$$$$
5o
                    3D
 Schrodinger Suite 2021-4.
 47 49  0  0  1  0            999 V2000
  -15.2013  -19.2718  -25.9388 C   0  0  0  0  0  0
  -14.7803  -19.8424  -27.1567 C   0  0  0  0  0  0
  -15.4395  -20.1044  -24.8216 C   0  0  0  0  0  0
  -14.5634  -21.2191  -27.2413 C   0  0  0  0  0  0
  -15.2085  -21.4897  -24.9187 C   0  0  0  0  0  0
  -14.8485  -17.0169  -26.7521 N   0  0  0  0  0  0
  -14.7575  -22.0650  -26.1241 C   0  0  0  0  0  0
  -14.4701  -23.5738  -26.1883 C   0  0  0  0  0  0
  -15.0379  -15.6110  -26.6738 C   0  0  0  0  0  0
  -15.7538  -15.0200  -25.6034 C   0  0  0  0  0  0
  -15.2379  -12.8288  -26.4886 C   0  0  0  0  0  0
  -14.5304  -13.3920  -27.5352 C   0  0  0  0  0  0
  -15.8770  -13.6078  -25.5246 C   0  0  0  0  0  0
  -14.4556  -14.7799  -27.6555 C   0  0  0  0  0  0
  -16.3760  -15.9498  -24.6092 C   0  0  0  0  0  0
  -16.1312  -17.2521  -24.8160 N   0  0  0  0  0  0
  -15.3791  -17.7893  -25.8489 C   0  0  0  0  0  0
  -17.0538  -15.5839  -23.6680 O   0  0  0  0  0  0
  -15.7423  -24.3206  -25.7020 C   0  0  0  0  0  0
  -14.1067  -23.9547  -27.5276 O   0  0  0  0  0  0
  -13.2237  -23.8749  -25.3164 C   0  0  0  0  0  0
  -13.7494  -15.3321  -28.8364 C   0  0  0  0  0  0
  -15.3329  -11.5111  -26.4912 F   0  0  0  0  0  0
  -14.5150  -25.2046  -28.1022 C   0  0  0  0  0  0
  -13.8807  -26.4786  -27.5059 C   0  0  0  0  0  0
  -12.5998  -26.7430  -28.0417 O   0  0  0  0  0  0
  -14.6158  -19.2440  -28.0399 H   0  0  0  0  0  0
  -15.7877  -19.7062  -23.8859 H   0  0  0  0  0  0
  -14.2324  -21.5721  -28.1922 H   0  0  0  0  0  0
  -15.3881  -22.1072  -24.0488 H   0  0  0  0  0  0
  -14.0666  -12.7534  -28.2637 H   0  0  0  0  0  0
  -16.4582  -13.1748  -24.7339 H   0  0  0  0  0  0
  -16.5580  -17.8983  -24.1657 H   0  0  0  0  0  0
  -15.9573  -24.1657  -24.6452 H   0  0  0  0  0  0
  -16.5893  -23.9566  -26.2859 H   0  0  0  0  0  0
  -15.6944  -25.3927  -25.8765 H   0  0  0  0  0  0
  -13.3832  -23.6577  -24.2525 H   0  0  0  0  0  0
  -12.8485  -24.8891  -25.3896 H   0  0  0  0  0  0
  -12.4059  -23.2374  -25.6700 H   0  0  0  0  0  0
  -13.7060  -14.6165  -29.6602 H   0  0  0  0  0  0
  -12.7301  -15.5710  -28.5207 H   0  0  0  0  0  0
  -14.2692  -16.2444  -29.1381 H   0  0  0  0  0  0
  -14.2430  -25.1843  -29.1563 H   0  0  0  0  0  0
  -15.5971  -25.3023  -28.0918 H   0  0  0  0  0  0
  -14.4917  -27.3472  -27.7627 H   0  0  0  0  0  0
  -13.8062  -26.4582  -26.4183 H   0  0  0  0  0  0
  -12.6807  -26.7829  -28.9818 H   0  0  0  0  0  0
  1  2  2  0  0  0
  1  3  1  0  0  0
  1 17  1  0  0  0
  2  4  1  0  0  0
  2 27  1  0  0  0
  3  5  2  0  0  0
  3 28  1  0  0  0
  4  7  2  0  0  0
  4 29  1  0  0  0
  5  7  1  0  0  0
  5 30  1  0  0  0
  6  9  1  0  0  0
  6 17  2  0  0  0
  7  8  1  0  0  0
  8 19  1  0  0  0
  8 20  1  0  0  0
  8 21  1  0  0  0
  9 10  2  0  0  0
  9 14  1  0  0  0
 10 13  1  0  0  0
 10 15  1  0  0  0
 11 12  1  0  0  0
 11 13  2  0  0  0
 11 23  1  0  0  0
 12 14  2  0  0  0
 12 31  1  0  0  0
 13 32  1  0  0  0
 14 22  1  0  0  0
 15 16  1  0  0  0
 15 18  2  0  0  0
 16 17  1  0  0  0
 16 33  1  0  0  0
 19 34  1  0  0  0
 19 35  1  0  0  0
 19 36  1  0  0  0
 20 24  1  0  0  0
 21 37  1  0  0  0
 21 38  1  0  0  0
 21 39  1  0  0  0
 22 40  1  0  0  0
 22 41  1  0  0  0
 22 42  1  0  0  0
 24 25  1  0  0  0
 24 43  1  0  0  0
 24 44  1  0  0  0
 25 26  1  0  0  0
 25 45  1  0  0  0
 25 46  1  0  0  0
 26 47  1  0  0  0
M  END
> <s_m_entry_id>
521

> <Name>
5o

> <IC50[nM]>
1.5

> <s_m_Source_Path>
/projects/mai/users/kmzp800_harry/pmx_colab/docking_jobs/tnks2

> <s_m_Source_File>
tnks2_lig.sdf

> <i_m_Source_File_Index>
10

> <s_m_job_name>
glide-dock_SP_tnks_mcs_fallabck

> <r_i_docking_score>
-9.44685332723726

> <r_i_glide_gscore>
-9.44685332723726

> <r_i_glide_emodel>
-33.2544345692521

$$$$
5n
                    3D
 Schrodinger Suite 2021-4.
 44 46  0  0  1  0            999 V2000
  -15.2061  -19.2756  -25.9346 C   0  0  0  0  0  0
  -15.4361  -20.1051  -24.8234 C   0  0  0  0  0  0
  -14.7796  -19.8500  -27.1388 C   0  0  0  0  0  0
  -15.3667  -17.8016  -25.8462 C   0  0  0  0  0  0
  -15.2196  -21.4764  -24.9284 C   0  0  0  0  0  0
  -14.5511  -21.2250  -27.2269 C   0  0  0  0  0  0
  -14.7583  -22.0711  -26.1195 C   0  0  0  0  0  0
  -16.1212  -17.2492  -24.8134 N   0  0  0  0  0  0
  -16.3617  -15.9499  -24.6031 C   0  0  0  0  0  0
  -14.8481  -17.0219  -26.7440 N   0  0  0  0  0  0
  -15.0242  -15.6352  -26.6734 C   0  0  0  0  0  0
  -15.7435  -15.0328  -25.6150 C   0  0  0  0  0  0
  -15.8523  -13.6305  -25.5489 C   0  0  0  0  0  0
  -15.2283  -12.8421  -26.5342 C   0  0  0  0  0  0
  -14.5212  -13.4426  -27.5887 C   0  0  0  0  0  0
  -14.4378  -14.8401  -27.6697 C   0  0  0  0  0  0
  -17.0495  -15.5710  -23.6600 O   0  0  0  0  0  0
  -14.4713  -23.5780  -26.1954 C   0  0  0  0  0  0
  -13.2189  -23.8569  -25.3317 C   0  0  0  0  0  0
  -15.7294  -24.3285  -25.7052 C   0  0  0  0  0  0
  -14.1137  -23.9557  -27.5382 O   0  0  0  0  0  0
  -15.3252  -11.5091  -26.4881 F   0  0  0  0  0  0
  -14.5037  -25.2107  -28.1260 C   0  0  0  0  0  0
  -13.8707  -26.4801  -27.5319 C   0  0  0  0  0  0
  -12.5693  -26.7167  -28.0242 O   0  0  0  0  0  0
  -15.7623  -19.6979  -23.8791 H   0  0  0  0  0  0
  -14.5983  -19.2510  -28.0124 H   0  0  0  0  0  0
  -15.3712  -22.0945  -24.0403 H   0  0  0  0  0  0
  -14.1919  -21.5905  -28.1687 H   0  0  0  0  0  0
  -16.5515  -17.8711  -24.1500 H   0  0  0  0  0  0
  -16.4056  -13.1714  -24.7446 H   0  0  0  0  0  0
  -14.0553  -12.8252  -28.3418 H   0  0  0  0  0  0
  -13.8949  -15.2995  -28.4824 H   0  0  0  0  0  0
  -12.3899  -23.2262  -25.6568 H   0  0  0  0  0  0
  -13.3994  -23.6301  -24.2813 H   0  0  0  0  0  0
  -12.8447  -24.8764  -25.3894 H   0  0  0  0  0  0
  -16.6051  -24.0335  -26.2874 H   0  0  0  0  0  0
  -15.6551  -25.4071  -25.8000 H   0  0  0  0  0  0
  -15.9442  -24.1111  -24.6594 H   0  0  0  0  0  0
  -14.2446  -25.1977  -29.1825 H   0  0  0  0  0  0
  -15.5874  -25.3219  -28.0795 H   0  0  0  0  0  0
  -14.4795  -27.3479  -27.8077 H   0  0  0  0  0  0
  -13.8383  -26.4536  -26.4515 H   0  0  0  0  0  0
  -12.2302  -27.4936  -27.6041 H   0  0  0  0  0  0
  1  2  2  0  0  0
  1  3  1  0  0  0
  1  4  1  0  0  0
  2  5  1  0  0  0
  2 26  1  0  0  0
  3  6  2  0  0  0
  3 27  1  0  0  0
  4  8  1  0  0  0
  4 10  2  0  0  0
  5  7  2  0  0  0
  5 28  1  0  0  0
  6  7  1  0  0  0
  6 29  1  0  0  0
  7 18  1  0  0  0
  8  9  1  0  0  0
  8 30  1  0  0  0
  9 12  1  0  0  0
  9 17  2  0  0  0
 10 11  1  0  0  0
 11 12  2  0  0  0
 11 16  1  0  0  0
 12 13  1  0  0  0
 13 14  2  0  0  0
 13 31  1  0  0  0
 14 15  1  0  0  0
 14 22  1  0  0  0
 15 16  2  0  0  0
 15 32  1  0  0  0
 16 33  1  0  0  0
 18 19  1  0  0  0
 18 20  1  0  0  0
 18 21  1  0  0  0
 19 34  1  0  0  0
 19 35  1  0  0  0
 19 36  1  0  0  0
 20 37  1  0  0  0
 20 38  1  0  0  0
 20 39  1  0  0  0
 21 23  1  0  0  0
 23 24  1  0  0  0
 23 40  1  0  0  0
 23 41  1  0  0  0
 24 25  1  0  0  0
 24 42  1  0  0  0
 24 43  1  0  0  0
 25 44  1  0  0  0
M  END
> <s_m_entry_id>
522

> <Name>
5n

> <IC50[nM]>
14

> <s_m_Source_Path>
/projects/mai/users/kmzp800_harry/pmx_colab/docking_jobs/tnks2

> <s_m_Source_File>
tnks2_lig.sdf

> <i_m_Source_File_Index>
1

> <s_m_job_name>
glide-dock_SP_tnks_mcs_fallabck

> <r_i_docking_score>
-9.3814702968296

> <r_i_glide_gscore>
-9.3814702968296

> <r_i_glide_emodel>
-37.4365168605711

$$$$
5c
                    3D
 Schrodinger Suite 2021-4.
 37 39  0  0  1  0            999 V2000
  -14.4455  -14.8360  -27.6868 C   0  0  0  0  0  0
  -15.0568  -15.6288  -26.6906 C   0  0  0  0  0  0
  -14.5149  -13.4295  -27.6067 C   0  0  0  0  0  0
  -15.7656  -15.0288  -25.6404 C   0  0  0  0  0  0
  -14.8706  -17.0089  -26.7692 N   0  0  0  0  0  0
  -15.2204  -12.8325  -26.5588 C   0  0  0  0  0  0
  -15.8390  -13.6239  -25.5804 C   0  0  0  0  0  0
  -16.3789  -15.9420  -24.6102 C   0  0  0  0  0  0
  -16.1202  -17.2412  -24.8134 N   0  0  0  0  0  0
  -17.0561  -15.5751  -23.6604 O   0  0  0  0  0  0
  -15.3836  -17.7808  -25.8500 C   0  0  0  0  0  0
  -15.2062  -19.2587  -25.9283 C   0  0  0  0  0  0
  -14.7802  -19.8413  -27.1340 C   0  0  0  0  0  0
  -14.5360  -21.2097  -27.2179 C   0  0  0  0  0  0
  -14.7415  -22.0544  -26.1115 C   0  0  0  0  0  0
  -15.2139  -21.4771  -24.9139 C   0  0  0  0  0  0
  -15.4464  -20.0956  -24.8156 C   0  0  0  0  0  0
  -14.4518  -23.5506  -26.1834 C   0  0  0  0  0  0
  -14.1510  -23.9723  -27.5074 O   0  0  0  0  0  0
  -13.1863  -23.8472  -25.3540 C   0  0  0  0  0  0
  -15.6965  -24.3193  -25.6999 C   0  0  0  0  0  0
  -16.4483  -12.7730  -24.3358 Cl  0  0  0  0  0  0
  -13.9215  -15.2920  -28.5033 H   0  0  0  0  0  0
  -14.0459  -12.8252  -28.3494 H   0  0  0  0  0  0
  -15.2549  -11.7568  -26.4905 H   0  0  0  0  0  0
  -16.5314  -17.8822  -24.1498 H   0  0  0  0  0  0
  -14.6062  -19.2359  -28.0056 H   0  0  0  0  0  0
  -14.1809  -21.5685  -28.1665 H   0  0  0  0  0  0
  -15.3836  -22.0975  -24.0463 H   0  0  0  0  0  0
  -15.7954  -19.6937  -23.8792 H   0  0  0  0  0  0
  -13.9482  -24.8931  -27.5166 H   0  0  0  0  0  0
  -12.3539  -23.2579  -25.7266 H   0  0  0  0  0  0
  -12.8400  -24.8841  -25.3735 H   0  0  0  0  0  0
  -13.3281  -23.5678  -24.3108 H   0  0  0  0  0  0
  -16.5650  -24.0508  -26.3040 H   0  0  0  0  0  0
  -15.5689  -25.3949  -25.8604 H   0  0  0  0  0  0
  -15.9369  -24.1314  -24.6592 H   0  0  0  0  0  0
  1  2  2  0  0  0
  1  3  1  0  0  0
  1 23  1  0  0  0
  2  4  1  0  0  0
  2  5  1  0  0  0
  3  6  2  0  0  0
  3 24  1  0  0  0
  4  7  2  0  0  0
  4  8  1  0  0  0
  5 11  2  0  0  0
  6  7  1  0  0  0
  6 25  1  0  0  0
  7 22  1  0  0  0
  8  9  1  0  0  0
  8 10  2  0  0  0
  9 11  1  0  0  0
  9 26  1  0  0  0
 11 12  1  0  0  0
 12 13  2  0  0  0
 12 17  1  0  0  0
 13 14  1  0  0  0
 13 27  1  0  0  0
 14 15  2  0  0  0
 14 28  1  0  0  0
 15 16  1  0  0  0
 15 18  1  0  0  0
 16 17  2  0  0  0
 16 29  1  0  0  0
 17 30  1  0  0  0
 18 19  1  0  0  0
 18 20  1  0  0  0
 18 21  1  0  0  0
 19 31  1  0  0  0
 20 32  1  0  0  0
 20 33  1  0  0  0
 20 34  1  0  0  0
 21 35  1  0  0  0
 21 36  1  0  0  0
 21 37  1  0  0  0
M  END
> <s_m_entry_id>
523

> <Name>
5c

> <IC50[nM]>
50

> <s_m_Source_Path>
/projects/mai/users/kmzp800_harry/pmx_colab/docking_jobs/tnks2

> <s_m_Source_File>
tnks2_lig.sdf

> <i_m_Source_File_Index>
17

> <s_m_job_name>
glide-dock_SP_tnks_mcs_fallabck

> <r_i_docking_score>
-8.77939445535409

> <r_i_glide_gscore>
-8.77939445535409

> <r_i_glide_emodel>
-44.5881518561496

$$$$
