3:0:0
     RDKit          3D

 57 60  0  0  1  0  0  0  0  0999 V2000
   41.2230    9.5130   18.0930 C   0  0  0  0  0  0  0  0  0  0  0  0
   42.1500    9.1970   19.0890 C   0  0  0  0  0  0  0  0  0  0  0  0
   43.2330   10.0470   19.3330 C   0  0  0  0  0  0  0  0  0  0  0  0
   43.3900   11.2120   18.5790 C   0  0  0  0  0  0  0  0  0  0  0  0
   42.4720   11.5430   17.5690 C   0  0  0  0  0  0  0  0  0  0  0  0
   41.3890   10.6830   17.3410 C   0  0  0  0  0  0  0  0  0  0  0  0
   42.6420   12.7980   16.7980 C   0  0  0  0  0  0  0  0  0  0  0  0
   43.4970   14.1310   17.3750 S   0  0  0  0  0  0  0  0  0  0  0  0
   43.2730   15.1150   16.0390 C   0  0  0  0  0  0  0  0  0  0  0  0
   42.5090   14.4240   15.1020 C   0  0  0  0  0  0  0  0  0  0  0  0
   42.1640   13.1100   15.5130 C   0  0  0  0  0  0  0  0  0  0  0  0
   41.2920   11.8380   14.3600 Br  0  0  0  0  0  0  0  0  0  0  0  0
   43.7950   16.4860   15.9190 C   0  0  0  0  0  0  0  0  0  0  0  0
   43.0100   17.4640   15.8010 O   0  0  0  0  0  0  0  0  0  0  0  0
   45.1660   16.7100   15.9360 O   0  0  0  0  0  0  0  0  0  0  0  0
   42.1570   15.0170   13.8800 O   0  0  0  0  0  0  0  0  0  0  0  0
   40.9430   15.7200   13.6500 C   0  0  0  0  0  0  0  0  0  0  0  0
   41.1790   16.8580   12.7190 C   0  0  0  0  0  0  0  0  0  0  0  0
   42.3300   17.3540   12.6090 O   0  0  0  0  0  0  0  0  0  0  0  0
   40.1370   17.3480   11.9440 O   0  0  0  0  0  0  0  0  0  0  0  0
   40.1210    8.6320   17.8560 N   0  0  0  0  0  0  0  0  0  0  0  0
   38.3480    6.7970   14.4370 N   0  0  0  0  0  0  0  0  0  0  0  0
   38.7360    5.9560   15.5790 C   0  0  0  0  0  0  0  0  0  0  0  0
   38.9460    6.7540   16.8650 C   0  0  0  0  0  0  0  0  0  0  0  0
   39.9560    7.8640   16.6300 C   0  0  0  0  0  0  0  0  0  0  0  0
   39.4480    8.7660   15.5160 C   0  0  0  0  0  0  0  0  0  0  0  0
   39.2350    7.9540   14.2400 C   0  0  0  0  0  0  0  0  0  0  0  0
   36.6680    7.2650   14.5070 S   0  0  0  0  0  0  0  0  0  0  0  0
   36.4580    8.4690   13.6310 O   0  0  0  0  0  0  0  0  0  0  0  0
   36.3260    7.6500   15.9200 O   0  0  0  0  0  0  0  0  0  0  0  0
   33.8230    3.9650   13.1620 C   0  0  0  0  0  0  0  0  0  0  0  0
   34.5110    4.7250   12.2110 C   0  0  0  0  0  0  0  0  0  0  0  0
   35.3820    5.7380   12.6240 C   0  0  0  0  0  0  0  0  0  0  0  0
   35.5730    5.9890   13.9870 C   0  0  0  0  0  0  0  0  0  0  0  0
   34.8740    5.2330   14.9370 C   0  0  0  0  0  0  0  0  0  0  0  0
   34.0040    4.2190   14.5250 C   0  0  0  0  0  0  0  0  0  0  0  0
   42.0279    8.2786   19.6819 H   0  0  0  0  0  0  0  0  0  0  0  0
   43.9614    9.7981   20.1188 H   0  0  0  0  0  0  0  0  0  0  0  0
   44.2424   11.8780   18.7785 H   0  0  0  0  0  0  0  0  0  0  0  0
   40.6570   10.9311   16.5583 H   0  0  0  0  0  0  0  0  0  0  0  0
   40.2043   15.0353   13.2078 H   0  0  0  0  0  0  0  0  0  0  0  0
   40.5660   16.1100   14.6070 H   0  0  0  0  0  0  0  0  0  0  0  0
   39.4065    8.5359   18.5916 H   0  0  0  0  0  0  0  0  0  0  0  0
   37.9431    5.2136   15.7528 H   0  0  0  0  0  0  0  0  0  0  0  0
   39.6955    5.4811   15.3265 H   0  0  0  0  0  0  0  0  0  0  0  0
   37.9886    7.1939   17.1809 H   0  0  0  0  0  0  0  0  0  0  0  0
   39.3250    6.0816   17.6487 H   0  0  0  0  0  0  0  0  0  0  0  0
   40.9272    7.4365   16.3403 H   0  0  0  0  0  0  0  0  0  0  0  0
   38.4940    9.2201   15.8219 H   0  0  0  0  0  0  0  0  0  0  0  0
   40.1917    9.5530   15.3223 H   0  0  0  0  0  0  0  0  0  0  0  0
   40.2120    7.5910   13.8882 H   0  0  0  0  0  0  0  0  0  0  0  0
   38.7543    8.6161   13.5048 H   0  0  0  0  0  0  0  0  0  0  0  0
   33.1390    3.1669   12.8376 H   0  0  0  0  0  0  0  0  0  0  0  0
   34.3671    4.5261   11.1387 H   0  0  0  0  0  0  0  0  0  0  0  0
   35.9185    6.3392   11.8751 H   0  0  0  0  0  0  0  0  0  0  0  0
   35.0099    5.4376   16.0092 H   0  0  0  0  0  0  0  0  0  0  0  0
   33.4622    3.6213   15.2728 H   0  0  0  0  0  0  0  0  0  0  0  0
  1  2  2  0
  1  6  1  0
  1 21  1  0
  2  3  1  0
  2 37  1  0
  3  4  2  0
  3 38  1  0
  4  5  1  0
  4 39  1  0
  5  6  2  0
  5  7  1  0
  6 40  1  0
  7  8  1  0
  7 11  2  0
  8  9  1  0
  9 10  2  0
  9 13  1  0
 10 11  1  0
 10 16  1  0
 11 12  1  0
 13 15  1  0
 13 14  2  0
 16 17  1  0
 17 18  1  0
 17 41  1  0
 17 42  1  0
 18 19  1  0
 18 20  2  0
 21 25  1  0
 21 43  1  0
 22 28  1  0
 22 23  1  0
 22 27  1  0
 23 24  1  0
 23 44  1  0
 23 45  1  0
 24 25  1  0
 24 46  1  0
 24 47  1  0
 25 26  1  0
 25 48  1  0
 26 27  1  0
 26 49  1  0
 26 50  1  0
 27 51  1  0
 27 52  1  0
 28 30  2  0
 28 29  2  0
 28 34  1  0
 31 36  2  0
 31 32  1  0
 31 53  1  0
 32 33  2  0
 32 54  1  0
 33 34  1  0
 33 55  1  0
 34 35  2  0
 35 36  1  0
 35 56  1  0
 36 57  1  0
M  CHG  2  15  -1  19  -1
M  END
>  <s_m_entry_id>  (1) 
1220

>  <MODEL>  (1) 
1

>  <REMARK>  (1) 
 VINA RESULT:    -8.965      0.000      0.000
 INTER + INTRA:         -12.862
 INTER:                 -12.437
 INTRA:                  -0.425
 UNBOUND:                 0.820
  Name = /scratch/kmzp800/tmpgzzpi43_/tmp5gr8fepm.pdb
  9 active torsions:
  status: ('A' for Active; 'I' for Inactive)
    1  A    between atoms: C4_4  and  S1_5
    2  A    between atoms: S1_5  and  N1_8
    3  A    between atoms: C7_11  and  N2_12
    4  A    between atoms: N2_12  and  C8_13
    5  A    between atoms: C12_17  and  C13_18
    6  A    between atoms: C14_20  and  C15_21
    7  A    between atoms: C16_24  and  O5_25
    8  A    between atoms: O5_25  and  C17_26
    9  A    between atoms: C17_26  and  C18_27
                            x       y       z     vdW  Elec       q    Type
                         _______ _______ _______ _____ _____    ______ ____

>  <TORSDO>  (1) 
F 9

>  <grid_id>  (1) 
ptp1b-prepared

>  <grid_path>  (1) 
ptp1b_vina.pdbqt

>  <grid_filename>  (1) 
ptp1b_vina.pdbqt

>  <docking_score>  (1) 
-8.965

>  <compound_name>  (1) 
lig_23483

>  <index_string>  (1) 
3:0:0

>  <s_m_Source_Path>  (1) 
/projects/mai/users/kmzp800_harry/pmx_colab/docking_jobs/ptp1b

>  <s_m_Source_File>  (1) 
ptp1b_confs_vina_mcs.sdf

>  <i_m_Source_File_Index>  (1) 
4

$$$$
