5:0:0
     RDKit          3D

 48 51  0  0  1  0  0  0  0  0999 V2000
   -4.5846   -2.9629   15.8590 C   0  0  0  0  0  0  0  0  0  0  0  0
   -3.9580   -2.1255   14.8979 O   0  0  0  0  0  0  0  0  0  0  0  0
   -2.5855   -1.9950   14.9549 C   0  0  0  0  0  0  0  0  0  0  0  0
   -1.7558   -2.8048   15.7677 C   0  0  0  0  0  0  0  0  0  0  0  0
   -0.3691   -2.5814   15.8176 C   0  0  0  0  0  0  0  0  0  0  0  0
    0.2256   -1.5497   15.0676 C   0  0  0  0  0  0  0  0  0  0  0  0
    1.6058   -1.3573   15.2564 N   0  0  0  0  0  0  0  0  0  0  0  0
    2.5270   -0.4369   14.7277 C   0  0  0  0  0  0  0  0  0  0  0  0
    2.2003    0.3708   13.7550 N   0  0  0  0  0  0  0  0  0  0  0  0
    3.1250    1.2668   13.2529 C   0  0  0  0  0  0  0  0  0  0  0  0
    4.4307    1.2926   13.6884 C   0  0  0  0  0  0  0  0  0  0  0  0
    4.7643    0.4753   14.7183 N   0  0  0  0  0  0  0  0  0  0  0  0
    5.9116    0.3731   15.4765 C   0  0  0  0  0  0  0  0  0  0  0  0
    5.6028   -0.4985   16.4869 C   0  0  0  0  0  0  0  0  0  0  0  0
    4.3575   -1.0634   16.3219 N   0  0  0  0  0  0  0  0  0  0  0  0
    3.8293   -0.4184   15.2898 C   0  0  0  0  0  0  0  0  0  0  0  0
    2.6315    2.2418   12.2520 C   0  0  0  0  0  0  0  0  0  0  0  0
    1.2807    2.6623   12.2322 C   0  0  0  0  0  0  0  0  0  0  0  0
    0.8238    3.6036   11.2893 C   0  0  0  0  0  0  0  0  0  0  0  0
    1.7146    4.1694   10.3539 C   0  0  0  0  0  0  0  0  0  0  0  0
    1.2023    5.1618    9.3519 C   0  0  0  0  0  0  0  0  0  0  0  0
    0.1310    4.9916    8.7739 O   0  0  0  0  0  0  0  0  0  0  0  0
    1.9463    6.2534    9.1682 N   0  0  0  0  0  0  0  0  0  0  0  0
    3.0663    3.7564   10.3615 C   0  0  0  0  0  0  0  0  0  0  0  0
    3.9543    4.2601    9.4708 F   0  0  0  0  0  0  0  0  0  0  0  0
    3.5104    2.8041   11.2972 C   0  0  0  0  0  0  0  0  0  0  0  0
   -0.5980   -0.7708   14.2222 C   0  0  0  0  0  0  0  0  0  0  0  0
   -1.9988   -0.9846   14.1605 C   0  0  0  0  0  0  0  0  0  0  0  0
   -2.8507   -0.2293   13.3780 O   0  0  0  0  0  0  0  0  0  0  0  0
   -2.2797    0.6858   12.4504 C   0  0  0  0  0  0  0  0  0  0  0  0
   -5.6667   -2.8837   15.7536 H   0  0  0  0  0  0  0  0  0  0  0  0
   -4.3164   -4.0093   15.7125 H   0  0  0  0  0  0  0  0  0  0  0  0
   -4.3299   -2.6640   16.8767 H   0  0  0  0  0  0  0  0  0  0  0  0
   -2.1579   -3.5934   16.3860 H   0  0  0  0  0  0  0  0  0  0  0  0
    0.2349   -3.1958   16.4711 H   0  0  0  0  0  0  0  0  0  0  0  0
    2.0191   -1.9456   15.9689 H   0  0  0  0  0  0  0  0  0  0  0  0
    5.1855    1.9927   13.3490 H   0  0  0  0  0  0  0  0  0  0  0  0
    6.7712    0.9925   15.2694 H   0  0  0  0  0  0  0  0  0  0  0  0
    6.1295   -0.7463   17.3830 H   0  0  0  0  0  0  0  0  0  0  0  0
    0.5809    2.2648   12.9522 H   0  0  0  0  0  0  0  0  0  0  0  0
   -0.2151    3.9012   11.2961 H   0  0  0  0  0  0  0  0  0  0  0  0
    1.6302    6.9681    8.5309 H   0  0  0  0  0  0  0  0  0  0  0  0
    2.8011    6.3737    9.6915 H   0  0  0  0  0  0  0  0  0  0  0  0
    4.5470    2.5041   11.2650 H   0  0  0  0  0  0  0  0  0  0  0  0
   -0.1671    0.0198   13.6370 H   0  0  0  0  0  0  0  0  0  0  0  0
   -3.0684    1.1114   11.8302 H   0  0  0  0  0  0  0  0  0  0  0  0
   -1.7829    1.5112   12.9630 H   0  0  0  0  0  0  0  0  0  0  0  0
   -1.5705    0.1939   11.7817 H   0  0  0  0  0  0  0  0  0  0  0  0
  1  2  1  0
  1 31  1  0
  1 32  1  0
  1 33  1  0
  2  3  1  0
  3  4  2  0
  3 28  1  0
  4  5  1  0
  4 34  1  0
  5  6  2  0
  5 35  1  0
  6  7  1  0
  6 27  1  0
  7  8  1  0
  7 36  1  0
  8  9  2  0
  8 16  1  0
  9 10  1  0
 10 11  2  0
 10 17  1  0
 11 12  1  0
 11 37  1  0
 12 13  1  0
 12 16  1  0
 13 14  2  0
 13 38  1  0
 14 15  1  0
 14 39  1  0
 15 16  2  0
 17 18  2  0
 17 26  1  0
 18 19  1  0
 18 40  1  0
 19 20  2  0
 19 41  1  0
 20 21  1  0
 20 24  1  0
 21 22  2  0
 21 23  1  0
 23 42  1  0
 23 43  1  0
 24 25  1  0
 24 26  2  0
 26 44  1  0
 27 28  2  0
 27 45  1  0
 28 29  1  0
 29 30  1  0
 30 46  1  0
 30 47  1  0
 30 48  1  0
M  END
>  <s_m_entry_id>  (1) 
993

>  <IC50[nM]>  (1) 
18.6

>  <s_m_Source_Path>  (1) 
/projects/mai/users/kmzp800_harry/pmx_colab/docking_jobs/syk

>  <s_m_Source_File>  (1) 
tnks2_lig.sdf

>  <i_m_Source_File_Index>  (1) 
6

>  <s_m_job_name>  (1) 
glide-dock_SP_tnks2_core_const

>  <r_i_docking_score>  (1) 
-7.59888371954536

>  <r_i_glide_gscore>  (1) 
-7.59888371954536

>  <r_i_glide_emodel>  (1) 
-52.8166529537732

>  <index_string>  (1) 
5:0:0

$$$$
