7:0:0
     RDKit          3D

 49 51  0  0  1  0  0  0  0  0999 V2000
   39.6384   17.8874   12.8925 O   0  0  0  0  0  0  0  0  0  0  0  0
   40.7976   17.4152   12.8939 C   0  0  0  0  0  0  0  0  0  0  0  0
   41.5974   17.4858   11.9302 O   0  0  0  0  0  0  0  0  0  0  0  0
   41.2567   16.7278   14.1828 C   0  0  0  0  0  0  0  0  0  0  0  0
   42.4327   15.9562   13.9666 O   0  0  0  0  0  0  0  0  0  0  0  0
   42.6224   14.9816   14.8842 C   0  0  0  0  0  0  0  0  0  0  0  0
   42.0611   13.6821   14.7919 C   0  0  0  0  0  0  0  0  0  0  0  0
   40.9838   13.2521   13.2948 Br  0  0  0  0  0  0  0  0  0  0  0  0
   42.3846   12.8158   15.8099 C   0  0  0  0  0  0  0  0  0  0  0  0
   43.3830   13.6535   16.9745 S   0  0  0  0  0  0  0  0  0  0  0  0
   43.3690   15.1250   16.0227 C   0  0  0  0  0  0  0  0  0  0  0  0
   44.1096   16.2863   16.5312 C   0  0  0  0  0  0  0  0  0  0  0  0
   44.5828   17.0840   15.6993 O   0  0  0  0  0  0  0  0  0  0  0  0
   44.2293   16.4580   17.7622 O   0  0  0  0  0  0  0  0  0  0  0  0
   42.0408   11.4064   16.0400 C   0  0  0  0  0  0  0  0  0  0  0  0
   42.9439   10.5329   16.6875 C   0  0  0  0  0  0  0  0  0  0  0  0
   42.6131    9.1792   16.8940 C   0  0  0  0  0  0  0  0  0  0  0  0
   41.3867    8.6651   16.4324 C   0  0  0  0  0  0  0  0  0  0  0  0
   40.4692    9.5161   15.7787 C   0  0  0  0  0  0  0  0  0  0  0  0
   40.8041   10.8762   15.6116 C   0  0  0  0  0  0  0  0  0  0  0  0
   39.2226    9.0903   15.2913 N   0  0  0  0  0  0  0  0  0  0  0  0
   38.8488    7.6902   15.1414 C   0  0  0  0  0  0  0  0  0  0  0  0
   37.3149    7.5588   15.2015 C   0  0  0  0  0  0  0  0  0  0  0  0
   36.8792    6.1102   14.9349 C   0  0  0  0  0  0  0  0  0  0  0  0
   37.3712    5.7018   13.6126 N   0  0  0  0  0  0  0  0  0  0  0  0
   38.8426    5.6764   13.5608 C   0  0  0  0  0  0  0  0  0  0  0  0
   39.4008    7.0914   13.8264 C   0  0  0  0  0  0  0  0  0  0  0  0
   36.5846    5.4293   12.5417 C   0  0  0  0  0  0  0  0  0  0  0  0
   37.0352    5.0776   11.4526 O   0  0  0  0  0  0  0  0  0  0  0  0
   35.0652    5.5773   12.6603 C   0  0  0  0  0  0  0  0  0  0  0  0
   40.4371   16.1081   14.5526 H   0  0  0  0  0  0  0  0  0  0  0  0
   41.4550   17.4863   14.9407 H   0  0  0  0  0  0  0  0  0  0  0  0
   43.9055   10.8917   17.0248 H   0  0  0  0  0  0  0  0  0  0  0  0
   43.3151    8.5247   17.3899 H   0  0  0  0  0  0  0  0  0  0  0  0
   41.1767    7.6186   16.5887 H   0  0  0  0  0  0  0  0  0  0  0  0
   40.0893   11.5273   15.1390 H   0  0  0  0  0  0  0  0  0  0  0  0
   38.6880    9.7631   14.7514 H   0  0  0  0  0  0  0  0  0  0  0  0
   39.2422    7.1147   15.9786 H   0  0  0  0  0  0  0  0  0  0  0  0
   36.8501    8.2180   14.4666 H   0  0  0  0  0  0  0  0  0  0  0  0
   36.9534    7.8806   16.1789 H   0  0  0  0  0  0  0  0  0  0  0  0
   35.7997    6.0265   15.0493 H   0  0  0  0  0  0  0  0  0  0  0  0
   37.3038    5.4496   15.6925 H   0  0  0  0  0  0  0  0  0  0  0  0
   39.2186    4.9817   14.3134 H   0  0  0  0  0  0  0  0  0  0  0  0
   39.2213    5.3098   12.6053 H   0  0  0  0  0  0  0  0  0  0  0  0
   40.4914    7.0585   13.8586 H   0  0  0  0  0  0  0  0  0  0  0  0
   39.1389    7.7371   12.9873 H   0  0  0  0  0  0  0  0  0  0  0  0
   34.6638    4.8759   13.3915 H   0  0  0  0  0  0  0  0  0  0  0  0
   34.5869    5.3621   11.7044 H   0  0  0  0  0  0  0  0  0  0  0  0
   34.7936    6.5925   12.9507 H   0  0  0  0  0  0  0  0  0  0  0  0
  1  2  2  0
  2  3  1  0
  2  4  1  0
  4  5  1  0
  4 31  1  0
  4 32  1  0
  5  6  1  0
  6 11  2  0
  6  7  1  0
  7  8  1  0
  7  9  2  0
  9 10  1  0
  9 15  1  0
 10 11  1  0
 11 12  1  0
 12 13  2  0
 12 14  1  0
 15 20  1  0
 15 16  2  0
 16 17  1  0
 16 33  1  0
 17 18  2  0
 17 34  1  0
 18 19  1  0
 18 35  1  0
 19 20  2  0
 19 21  1  0
 20 36  1  0
 21 22  1  0
 21 37  1  0
 22 27  1  0
 22 23  1  0
 22 38  1  0
 23 24  1  0
 23 39  1  0
 23 40  1  0
 24 25  1  0
 24 41  1  0
 24 42  1  0
 25 26  1  0
 25 28  1  0
 26 27  1  0
 26 43  1  0
 26 44  1  0
 27 45  1  0
 27 46  1  0
 28 29  2  0
 28 30  1  0
 30 47  1  0
 30 48  1  0
 30 49  1  0
M  CHG  2   3  -1  14  -1
M  END
>  <s_m_entry_id>  (1) 
460

>  <i_f3d_flags>  (1) 
0

>  <r_epik_Ionization_Penalty>  (1) 
  0.0007

>  <r_epik_State_Penalty>  (1) 
  0.0004

>  <i_epik_Tot_Q>  (1) 
-2

>  <s_m_job_name>  (1) 
glide-dock_SP_ptp1b_no_cons

>  <r_i_docking_score>  (1) 
-8.35771223321836

>  <r_i_glide_gscore>  (1) 
-8.35811223321836

>  <r_i_glide_emodel>  (1) 
-114.824295500517

>  <index_string>  (1) 
7:0:0

$$$$
