21:0:0
     RDKit          3D

 45 48  0  0  1  0  0  0  0  0999 V2000
  -14.5260  -14.6100  -27.4000 C   0  0  0  0  0  0  0  0  0  0  0  0
  -15.0200  -15.4600  -26.3950 C   0  0  0  0  0  0  0  0  0  0  0  0
  -14.6560  -13.2290  -27.2500 C   0  0  0  0  0  0  0  0  0  0  0  0
  -15.7030  -14.9170  -25.2980 C   0  0  0  0  0  0  0  0  0  0  0  0
  -14.8100  -16.8490  -26.4840 N   0  0  0  0  0  0  0  0  0  0  0  0
  -15.2960  -12.6930  -26.1380 C   0  0  0  0  0  0  0  0  0  0  0  0
  -15.8400  -13.5320  -25.1610 C   0  0  0  0  0  0  0  0  0  0  0  0
  -16.2820  -15.8710  -24.2740 C   0  0  0  0  0  0  0  0  0  0  0  0
  -15.8940  -17.1590  -24.5000 N   0  0  0  0  0  0  0  0  0  0  0  0
  -17.0490  -15.5620  -23.3580 O   0  0  0  0  0  0  0  0  0  0  0  0
  -15.2120  -17.6840  -25.5840 C   0  0  0  0  0  0  0  0  0  0  0  0
  -13.8160  -15.1400  -28.6360 C   0  0  0  0  0  0  0  0  0  0  0  0
  -15.3810  -11.3500  -26.0230 F   0  0  0  0  0  0  0  0  0  0  0  0
  -15.0010  -19.1500  -25.7140 C   0  0  0  0  0  0  0  0  0  0  0  0
  -14.9360  -19.7270  -26.9930 C   0  0  0  0  0  0  0  0  0  0  0  0
  -14.7720  -21.0980  -27.1560 C   0  0  0  0  0  0  0  0  0  0  0  0
  -14.6600  -21.9340  -26.0410 C   0  0  0  0  0  0  0  0  0  0  0  0
  -14.7030  -21.3660  -24.7640 C   0  0  0  0  0  0  0  0  0  0  0  0
  -14.8770  -19.9910  -24.5990 C   0  0  0  0  0  0  0  0  0  0  0  0
  -14.5860  -23.4620  -26.2020 C   0  0  0  0  0  0  0  0  0  0  0  0
  -13.2040  -24.0130  -26.6390 C   0  0  0  0  0  0  0  0  0  0  0  0
  -13.1690  -25.5200  -27.0620 C   0  0  0  0  0  0  0  0  0  0  0  0
  -14.3650  -25.8770  -27.9420 N   0  0  0  0  0  0  0  0  0  0  0  0
  -15.6660  -25.4810  -27.2490 C   0  0  0  0  0  0  0  0  0  0  0  0
  -15.6830  -23.9530  -27.1570 C   0  0  0  0  0  0  0  0  0  0  0  0
  -14.2479  -12.5572  -28.0195 H   0  0  0  0  0  0  0  0  0  0  0  0
  -16.3694  -13.1079  -24.2950 H   0  0  0  0  0  0  0  0  0  0  0  0
  -16.1427  -17.8337  -23.7626 H   0  0  0  0  0  0  0  0  0  0  0  0
  -12.9694  -15.7720  -28.3298 H   0  0  0  0  0  0  0  0  0  0  0  0
  -14.5198  -15.7354  -29.2361 H   0  0  0  0  0  0  0  0  0  0  0  0
  -13.4453  -14.2959  -29.2361 H   0  0  0  0  0  0  0  0  0  0  0  0
  -15.0162  -19.0830  -27.8811 H   0  0  0  0  0  0  0  0  0  0  0  0
  -14.7301  -21.5273  -28.1679 H   0  0  0  0  0  0  0  0  0  0  0  0
  -14.5984  -22.0106  -23.8788 H   0  0  0  0  0  0  0  0  0  0  0  0
  -14.9172  -19.5638  -23.5862 H   0  0  0  0  0  0  0  0  0  0  0  0
  -14.7485  -23.8644  -25.1912 H   0  0  0  0  0  0  0  0  0  0  0  0
  -12.8586  -23.4149  -27.4952 H   0  0  0  0  0  0  0  0  0  0  0  0
  -12.5605  -23.9393  -25.7499 H   0  0  0  0  0  0  0  0  0  0  0  0
  -12.2419  -25.7137  -27.6215 H   0  0  0  0  0  0  0  0  0  0  0  0
  -13.2106  -26.1371  -26.1524 H   0  0  0  0  0  0  0  0  0  0  0  0
  -14.2902  -25.3746  -28.8380 H   0  0  0  0  0  0  0  0  0  0  0  0
  -16.5276  -25.8329  -27.8354 H   0  0  0  0  0  0  0  0  0  0  0  0
  -15.7286  -25.9332  -26.2482 H   0  0  0  0  0  0  0  0  0  0  0  0
  -16.6635  -23.6233  -26.7828 H   0  0  0  0  0  0  0  0  0  0  0  0
  -15.4994  -23.5333  -28.1571 H   0  0  0  0  0  0  0  0  0  0  0  0
  1  3  2  0
  1  2  1  0
  1 12  1  0
  2  4  2  0
  2  5  1  0
  3  6  1  0
  4  7  1  0
  4  8  1  0
  5 11  2  0
  6 13  1  0
  6  7  2  0
  8 10  2  0
  8  9  1  0
  9 11  1  0
 11 14  1  0
 14 19  1  0
 14 15  2  0
 15 16  1  0
 16 17  2  0
 17 18  1  0
 17 20  1  0
 18 19  2  0
 20 21  1  0
 20 25  1  0
 21 22  1  0
 22 23  1  0
 23 24  1  0
 24 25  1  0
  3 26  1  0
  7 27  1  0
  9 28  1  0
 12 29  1  0
 12 30  1  0
 12 31  1  0
 15 32  1  0
 16 33  1  0
 18 34  1  0
 19 35  1  0
 20 36  1  0
 21 37  1  0
 21 38  1  0
 22 39  1  0
 22 40  1  0
 23 41  1  0
 24 42  1  0
 24 43  1  0
 25 44  1  0
 25 45  1  0
M  END
>  <s_m_entry_id>  (1) 
2349

>  <MODEL>  (1) 
1

>  <REMARK>  (1) 
 VINA RESULT:   -11.609      0.000      0.000
 INTER + INTRA:         -13.440
 INTER:                 -12.967
 INTRA:                  -0.474
 UNBOUND:                -0.474
  Name = 8d
  3 active torsions:
  status: ('A' for Active; 'I' for Inactive)
    1  A    between atoms: C_1  and  C_18
    2  A    between atoms: C_11  and  C_12
    3  A    between atoms: C_15  and  C_20
                            x       y       z     vdW  Elec       q    Type
                         _______ _______ _______ _____ _____    ______ ____

>  <TORSDO>  (1) 
F 2

>  <s_m_Source_Path>  (1) 
/projects/mai/users/kmzp800_harry/pmx_colab/docking_jobs/tnks2/vina_prep/output

>  <s_m_Source_File>  (1) 
tnks_naive_vina.sdf

>  <i_m_Source_File_Index>  (1) 
22

>  <index_string>  (1) 
21:0:0

$$$$
