27:0:0
     RDKit          3D

 52 55  0  0  1  0  0  0  0  0999 V2000
   34.5509   35.0891   21.2462 C   0  0  0  0  0  0  0  0  0  0  0  0
   34.4734   38.9764   23.9880 C   0  0  0  0  0  0  0  0  0  0  0  0
   34.9744   37.8897   21.5887 C   0  0  0  0  0  0  0  0  0  0  0  0
   35.2255   37.2522   20.3019 C   0  0  0  0  0  0  0  0  0  0  0  0
   34.6031   37.0813   22.6798 C   0  0  0  0  0  0  0  0  0  0  0  0
   35.0690   39.2765   21.8134 C   0  0  0  0  0  0  0  0  0  0  0  0
   35.0580   35.9206   20.1513 C   0  0  0  0  0  0  0  0  0  0  0  0
   34.0511   34.8293   23.6129 C   0  0  0  0  0  0  0  0  0  0  0  0
   34.8415   39.8208   23.0285 N   0  0  0  0  0  0  0  0  0  0  0  0
   34.2464   33.9126   21.0578 O   0  0  0  0  0  0  0  0  0  0  0  0
   34.4427   35.6733   22.4711 N   0  0  0  0  0  0  0  0  0  0  0  0
   34.3721   37.6553   23.8754 N   0  0  0  0  0  0  0  0  0  0  0  0
   34.0371   39.5496   25.1661 N   0  0  0  0  0  0  0  0  0  0  0  0
   35.5618   37.8788   19.4882 H   0  0  0  0  0  0  0  0  0  0  0  0
   35.3636   39.9502   21.0212 H   0  0  0  0  0  0  0  0  0  0  0  0
   34.4719   33.8225   23.5514 H   0  0  0  0  0  0  0  0  0  0  0  0
   34.3891   35.2320   24.5678 H   0  0  0  0  0  0  0  0  0  0  0  0
   32.9659   34.7410   23.6508 H   0  0  0  0  0  0  0  0  0  0  0  0
   34.1508   40.5567   25.2086 H   0  0  0  0  0  0  0  0  0  0  0  0
   30.4777   38.1359   25.4930 C   0  0  0  0  0  0  0  0  0  0  0  0
   31.6472   38.8885   24.8643 C   0  0  0  0  0  0  0  0  0  0  0  0
   32.8310   39.0915   25.8527 C   0  0  0  0  0  0  0  0  0  0  0  0
   33.1076   37.8758   26.7788 C   0  0  0  0  0  0  0  0  0  0  0  0
   31.8022   37.2674   27.3153 C   0  0  0  0  0  0  0  0  0  0  0  0
   29.7517   37.9124   24.7106 H   0  0  0  0  0  0  0  0  0  0  0  0
   29.9666   38.7551   26.2257 H   0  0  0  0  0  0  0  0  0  0  0  0
   31.9350   38.3095   23.9887 H   0  0  0  0  0  0  0  0  0  0  0  0
   31.3067   39.8520   24.4868 H   0  0  0  0  0  0  0  0  0  0  0  0
   32.5357   39.9099   26.5103 H   0  0  0  0  0  0  0  0  0  0  0  0
   33.7463   38.1799   27.6093 H   0  0  0  0  0  0  0  0  0  0  0  0
   33.6564   37.0960   26.2528 H   0  0  0  0  0  0  0  0  0  0  0  0
   31.2806   37.9870   27.9506 H   0  0  0  0  0  0  0  0  0  0  0  0
   32.0135   36.4140   27.9596 H   0  0  0  0  0  0  0  0  0  0  0  0
   30.9687   36.9281   26.1589 N   0  0  0  0  0  0  0  0  0  0  0  0
   30.8323   35.6917   25.6252 C   0  0  0  0  0  0  0  0  0  0  0  0
   30.2666   35.4928   24.5513 O   0  0  0  0  0  0  0  0  0  0  0  0
   31.4109   34.4860   26.3698 C   0  0  0  0  0  0  0  0  0  0  0  0
   32.4812   34.5988   26.5284 H   0  0  0  0  0  0  0  0  0  0  0  0
   31.2585   33.5763   25.7931 H   0  0  0  0  0  0  0  0  0  0  0  0
   30.9172   34.3610   27.3320 H   0  0  0  0  0  0  0  0  0  0  0  0
   35.2661   35.2628   18.9674 O   0  0  0  0  0  0  0  0  0  0  0  0
   37.8251   36.5950   15.9331 C   0  0  0  0  0  0  0  0  0  0  0  0
   38.3678   36.3493   17.2148 C   0  0  0  0  0  0  0  0  0  0  0  0
   37.5133   36.0015   18.2827 C   0  0  0  0  0  0  0  0  0  0  0  0
   36.1496   35.7246   18.0259 C   0  0  0  0  0  0  0  0  0  0  0  0
   35.6820   35.8001   16.7099 C   0  0  0  0  0  0  0  0  0  0  0  0
   36.4790   36.3159   15.6803 C   0  0  0  0  0  0  0  0  0  0  0  0
   38.5619   37.1510   14.9558 F   0  0  0  0  0  0  0  0  0  0  0  0
   39.4053   36.5734   17.4128 H   0  0  0  0  0  0  0  0  0  0  0  0
   38.0046   35.9488   19.5428 F   0  0  0  0  0  0  0  0  0  0  0  0
   34.6505   35.5497   16.5018 H   0  0  0  0  0  0  0  0  0  0  0  0
   36.0662   36.4946   14.6958 H   0  0  0  0  0  0  0  0  0  0  0  0
  1  7  1  0
  1 10  2  0
  1 11  1  0
  2  9  1  0
  2 12  2  0
  2 13  1  0
  3  4  1  0
  3  5  2  0
  3  6  1  0
  4  7  2  0
  4 14  1  0
  5 11  1  0
  5 12  1  0
  6  9  2  0
  6 15  1  0
  7 41  1  0
  8 11  1  0
  8 16  1  0
  8 17  1  0
  8 18  1  0
 13 19  1  0
 13 22  1  0
 20 21  1  0
 20 25  1  0
 20 26  1  0
 20 34  1  0
 21 22  1  0
 21 27  1  0
 21 28  1  0
 22 23  1  0
 22 29  1  0
 23 24  1  0
 23 30  1  0
 23 31  1  0
 24 32  1  0
 24 33  1  0
 24 34  1  0
 34 35  1  0
 35 36  2  0
 35 37  1  0
 37 38  1  0
 37 39  1  0
 37 40  1  0
 41 45  1  0
 42 43  2  0
 42 47  1  0
 42 48  1  0
 43 44  1  0
 43 49  1  0
 44 45  2  0
 44 50  1  0
 45 46  1  0
 46 47  2  0
 46 51  1  0
 47 52  1  0
M  END
>  <s_m_entry_id>  (1) 
845

>  <s_m_Source_Path>  (1) 
/projects/mai/users/kmzp800_harry/pmx_colab/docking_jobs/p38/glide-dock_SP_p38_mcs_docking_2

>  <s_m_Source_File>  (1) 
glide-dock_SP_p38_mcs_docking_2_pv.maegz

>  <i_m_Source_File_Index>  (1) 
29

>  <s_pdb_PDB_TITLE>  (1) 
MX MODEL

>  <r_i_docking_score>  (1) 
-7.00929181434088

>  <r_i_glide_gscore>  (1) 
-7.00929181434088

>  <r_i_glide_emodel>  (1) 
-38.4133687120509

>  <index_string>  (1) 
27:0:0

$$$$
