0:0:0
     RDKit          3D

 49 52  0  0  1  0  0  0  0  0999 V2000
   38.5723   36.1621   15.8903 F   0  0  0  0  0  0  0  0  0  0  0  0
   37.5614   35.9495   16.7524 C   0  0  0  0  0  0  0  0  0  0  0  0
   36.3100   35.5497   16.2593 C   0  0  0  0  0  0  0  0  0  0  0  0
   35.2317   35.3835   17.1436 C   0  0  0  0  0  0  0  0  0  0  0  0
   34.0364   34.9778   16.6577 F   0  0  0  0  0  0  0  0  0  0  0  0
   35.3835   35.6376   18.5204 C   0  0  0  0  0  0  0  0  0  0  0  0
   36.6613   35.9981   19.0194 C   0  0  0  0  0  0  0  0  0  0  0  0
   37.7477   36.1509   18.1344 C   0  0  0  0  0  0  0  0  0  0  0  0
   34.2720   35.4827   19.3140 O   0  0  0  0  0  0  0  0  0  0  0  0
   34.2412   36.0653   20.5506 C   0  0  0  0  0  0  0  0  0  0  0  0
   34.2309   37.4060   20.6887 C   0  0  0  0  0  0  0  0  0  0  0  0
   34.2034   35.1676   21.7054 C   0  0  0  0  0  0  0  0  0  0  0  0
   34.2292   33.9484   21.5547 O   0  0  0  0  0  0  0  0  0  0  0  0
   34.1731   35.7444   22.9416 N   0  0  0  0  0  0  0  0  0  0  0  0
   34.1368   34.8691   24.1327 C   0  0  0  0  0  0  0  0  0  0  0  0
   35.5493   34.5545   24.6521 C   0  0  0  0  0  0  0  0  0  0  0  0
   34.1838   37.1658   23.1384 C   0  0  0  0  0  0  0  0  0  0  0  0
   34.2048   38.0125   22.0114 C   0  0  0  0  0  0  0  0  0  0  0  0
   34.1719   37.7102   24.3698 N   0  0  0  0  0  0  0  0  0  0  0  0
   34.1377   39.0336   24.4879 C   0  0  0  0  0  0  0  0  0  0  0  0
   34.1531   39.9143   23.4890 N   0  0  0  0  0  0  0  0  0  0  0  0
   34.1932   39.4036   22.2398 C   0  0  0  0  0  0  0  0  0  0  0  0
   34.0714   39.5491   25.7665 N   0  0  0  0  0  0  0  0  0  0  0  0
   34.2151   38.7542   26.9863 C   0  0  0  0  0  0  0  0  0  0  0  0
   34.5714   39.6408   28.1885 C   0  0  0  0  0  0  0  0  0  0  0  0
   33.3501   40.4399   28.6701 C   0  0  0  0  0  0  0  0  0  0  0  0
   32.2858   39.5491   28.9877 O   0  0  0  0  0  0  0  0  0  0  0  0
   31.8179   38.8265   27.8555 C   0  0  0  0  0  0  0  0  0  0  0  0
   32.9494   37.9353   27.3189 C   0  0  0  0  0  0  0  0  0  0  0  0
   36.1729   35.3803   15.2024 H   0  0  0  0  0  0  0  0  0  0  0  0
   36.8224   36.1703   20.0727 H   0  0  0  0  0  0  0  0  0  0  0  0
   38.7171   36.4470   18.5082 H   0  0  0  0  0  0  0  0  0  0  0  0
   34.2531   38.0563   19.8270 H   0  0  0  0  0  0  0  0  0  0  0  0
   33.5505   35.3279   24.9310 H   0  0  0  0  0  0  0  0  0  0  0  0
   33.6138   33.9310   23.9295 H   0  0  0  0  0  0  0  0  0  0  0  0
   35.5049   33.8911   25.5170 H   0  0  0  0  0  0  0  0  0  0  0  0
   36.1512   34.0583   23.8896 H   0  0  0  0  0  0  0  0  0  0  0  0
   36.0687   35.4661   24.9552 H   0  0  0  0  0  0  0  0  0  0  0  0
   34.2087   40.1098   21.4222 H   0  0  0  0  0  0  0  0  0  0  0  0
   34.0321   40.5620   25.8506 H   0  0  0  0  0  0  0  0  0  0  0  0
   35.0419   38.0622   26.8217 H   0  0  0  0  0  0  0  0  0  0  0  0
   34.9240   39.0100   29.0065 H   0  0  0  0  0  0  0  0  0  0  0  0
   35.3953   40.3120   27.9432 H   0  0  0  0  0  0  0  0  0  0  0  0
   33.6041   41.0188   29.5579 H   0  0  0  0  0  0  0  0  0  0  0  0
   33.0289   41.1493   27.9051 H   0  0  0  0  0  0  0  0  0  0  0  0
   30.9645   38.2153   28.1530 H   0  0  0  0  0  0  0  0  0  0  0  0
   31.4607   39.5164   27.0884 H   0  0  0  0  0  0  0  0  0  0  0  0
   32.6006   37.3646   26.4596 H   0  0  0  0  0  0  0  0  0  0  0  0
   33.1983   37.1980   28.0831 H   0  0  0  0  0  0  0  0  0  0  0  0
  1  2  1  0
  2  8  2  0
  2  3  1  0
  3  4  2  0
  3 30  1  0
  4  5  1  0
  4  6  1  0
  6  7  2  0
  6  9  1  0
  7  8  1  0
  7 31  1  0
  8 32  1  0
  9 10  1  0
 10 11  2  0
 10 12  1  0
 11 18  1  0
 11 33  1  0
 12 13  2  0
 12 14  1  0
 14 15  1  0
 14 17  1  0
 15 16  1  0
 15 34  1  0
 15 35  1  0
 16 36  1  0
 16 37  1  0
 16 38  1  0
 17 18  2  0
 17 19  1  0
 18 22  1  0
 19 20  2  0
 20 21  1  0
 20 23  1  0
 21 22  2  0
 22 39  1  0
 23 24  1  0
 23 40  1  0
 24 29  1  0
 24 25  1  0
 24 41  1  0
 25 26  1  0
 25 42  1  0
 25 43  1  0
 26 27  1  0
 26 44  1  0
 26 45  1  0
 27 28  1  0
 28 29  1  0
 28 46  1  0
 28 47  1  0
 29 48  1  0
 29 49  1  0
M  END
>  <s_m_entry_id>  (1) 
717

>  <i_f3d_flags>  (1) 
0

>  <r_lp_tautomer_probability>  (1) 
1

>  <r_epik_Ionization_Penalty>  (1) 
  0.0000

>  <r_epik_State_Penalty>  (1) 
  0.0000

>  <i_epik_Tot_Q>  (1) 
0

>  <s_m_job_name>  (1) 
glide-dock_SP_p38_all_ligs_no_cons_10_poses

>  <r_i_docking_score>  (1) 
-7.46739443202349

>  <r_i_glide_gscore>  (1) 
-7.46739443202349

>  <r_i_glide_emodel>  (1) 
-60.4053103468383

>  <index_string>  (1) 
0:0:0

$$$$
