22:0:0
     RDKit          3D

 41 43  0  0  1  0  0  0  0  0999 V2000
   34.9512   39.1769   21.9670 C   0  0  0  0  0  0  0  0  0  0  0  0
   34.1940   37.0382   22.7744 C   0  0  0  0  0  0  0  0  0  0  0  0
   34.5524   39.7617   23.1168 N   0  0  0  0  0  0  0  0  0  0  0  0
   34.7926   37.7943   21.7456 C   0  0  0  0  0  0  0  0  0  0  0  0
   35.2030   37.1097   20.5251 C   0  0  0  0  0  0  0  0  0  0  0  0
   35.0031   35.7800   20.3838 C   0  0  0  0  0  0  0  0  0  0  0  0
   34.3421   34.9899   21.4256 C   0  0  0  0  0  0  0  0  0  0  0  0
   34.0084   38.9580   24.0310 C   0  0  0  0  0  0  0  0  0  0  0  0
   34.1072   33.7943   21.2518 O   0  0  0  0  0  0  0  0  0  0  0  0
   34.0032   35.6342   22.5777 N   0  0  0  0  0  0  0  0  0  0  0  0
   33.3742   34.8800   23.6758 C   0  0  0  0  0  0  0  0  0  0  0  0
   33.8114   37.6487   23.9139 N   0  0  0  0  0  0  0  0  0  0  0  0
   33.6230   39.5494   25.2140 N   0  0  0  0  0  0  0  0  0  0  0  0
   35.3982   39.8174   21.2214 H   0  0  0  0  0  0  0  0  0  0  0  0
   35.6665   37.7067   19.7532 H   0  0  0  0  0  0  0  0  0  0  0  0
   33.3960   33.7958   23.5574 H   0  0  0  0  0  0  0  0  0  0  0  0
   33.8777   35.0915   24.6199 H   0  0  0  0  0  0  0  0  0  0  0  0
   32.3304   35.1781   23.7798 H   0  0  0  0  0  0  0  0  0  0  0  0
   33.7677   40.5509   25.2902 H   0  0  0  0  0  0  0  0  0  0  0  0
   32.7332   38.9508   26.2001 C   0  0  0  0  0  0  0  0  0  0  0  0
   32.8459   39.7034   27.5327 C   0  0  0  0  0  0  0  0  0  0  0  0
   31.2808   38.9460   25.6970 C   0  0  0  0  0  0  0  0  0  0  0  0
   33.0478   37.9204   26.3713 H   0  0  0  0  0  0  0  0  0  0  0  0
   32.2049   39.2554   28.2925 H   0  0  0  0  0  0  0  0  0  0  0  0
   32.5526   40.7486   27.4283 H   0  0  0  0  0  0  0  0  0  0  0  0
   33.8680   39.6824   27.9116 H   0  0  0  0  0  0  0  0  0  0  0  0
   30.6072   38.5159   26.4392 H   0  0  0  0  0  0  0  0  0  0  0  0
   30.9377   39.9582   25.4829 H   0  0  0  0  0  0  0  0  0  0  0  0
   31.1750   38.3593   24.7841 H   0  0  0  0  0  0  0  0  0  0  0  0
   35.3459   35.0654   19.2635 O   0  0  0  0  0  0  0  0  0  0  0  0
   37.5766   36.4695   16.0222 C   0  0  0  0  0  0  0  0  0  0  0  0
   38.2028   36.3493   17.2775 C   0  0  0  0  0  0  0  0  0  0  0  0
   37.4426   35.9806   18.4032 C   0  0  0  0  0  0  0  0  0  0  0  0
   36.0892   35.5949   18.2441 C   0  0  0  0  0  0  0  0  0  0  0  0
   35.5211   35.5494   16.9615 C   0  0  0  0  0  0  0  0  0  0  0  0
   36.2406   36.0567   15.8675 C   0  0  0  0  0  0  0  0  0  0  0  0
   38.2238   37.0670   14.9960 F   0  0  0  0  0  0  0  0  0  0  0  0
   39.2316   36.6577   17.4012 H   0  0  0  0  0  0  0  0  0  0  0  0
   38.0275   35.9495   19.6215 F   0  0  0  0  0  0  0  0  0  0  0  0
   34.5015   35.2139   16.8326 H   0  0  0  0  0  0  0  0  0  0  0  0
   35.7524   36.1501   14.9117 H   0  0  0  0  0  0  0  0  0  0  0  0
  1  3  2  0
  1  4  1  0
  1 14  1  0
  2  4  2  0
  2 10  1  0
  2 12  1  0
  3  8  1  0
  4  5  1  0
  5  6  2  0
  5 15  1  0
  6  7  1  0
  6 30  1  0
  7  9  2  0
  7 10  1  0
  8 12  2  0
  8 13  1  0
 10 11  1  0
 11 16  1  0
 11 17  1  0
 11 18  1  0
 13 19  1  0
 13 20  1  0
 20 21  1  0
 20 22  1  0
 20 23  1  0
 21 24  1  0
 21 25  1  0
 21 26  1  0
 22 27  1  0
 22 28  1  0
 22 29  1  0
 30 34  1  0
 31 32  2  0
 31 36  1  0
 31 37  1  0
 32 33  1  0
 32 38  1  0
 33 34  2  0
 33 39  1  0
 34 35  1  0
 35 36  2  0
 35 40  1  0
 36 41  1  0
M  END
>  <s_m_entry_id>  (1) 
840

>  <s_m_Source_Path>  (1) 
/projects/mai/users/kmzp800_harry/pmx_colab/docking_jobs/p38/glide-dock_SP_p38_mcs_docking_2

>  <s_m_Source_File>  (1) 
glide-dock_SP_p38_mcs_docking_2_pv.maegz

>  <i_m_Source_File_Index>  (1) 
24

>  <s_pdb_PDB_TITLE>  (1) 
MX MODEL

>  <r_i_docking_score>  (1) 
-7.14302262375462

>  <r_i_glide_gscore>  (1) 
-7.14302262375462

>  <r_i_glide_emodel>  (1) 
-42.4304025781441

>  <index_string>  (1) 
22:0:0

$$$$
