11:0:0
     RDKit          3D

 48 51  0  0  1  0  0  0  0  0999 V2000
   36.6183   34.7920   16.1989 F   0  0  0  0  0  0  0  0  0  0  0  0
   35.2917   34.9440   16.3883 C   0  0  0  0  0  0  0  0  0  0  0  0
   34.4267   34.7500   15.2983 C   0  0  0  0  0  0  0  0  0  0  0  0
   33.0522   34.9646   15.4555 C   0  0  0  0  0  0  0  0  0  0  0  0
   32.5535   35.3151   16.7172 C   0  0  0  0  0  0  0  0  0  0  0  0
   33.3796   35.3386   17.8499 C   0  0  0  0  0  0  0  0  0  0  0  0
   34.7657   35.1695   17.6807 C   0  0  0  0  0  0  0  0  0  0  0  0
   35.6695   35.1481   18.8868 C   0  0  0  0  0  0  0  0  0  0  0  0
   35.1484   35.8217   20.1349 C   0  0  0  0  0  0  0  0  0  0  0  0
   35.2595   37.1567   20.2712 C   0  0  0  0  0  0  0  0  0  0  0  0
   34.5131   35.0063   21.1817 C   0  0  0  0  0  0  0  0  0  0  0  0
   34.2228   33.8262   20.9968 O   0  0  0  0  0  0  0  0  0  0  0  0
   34.2057   35.6390   22.3565 N   0  0  0  0  0  0  0  0  0  0  0  0
   33.6635   34.8438   23.4685 C   0  0  0  0  0  0  0  0  0  0  0  0
   34.2941   37.0575   22.5298 C   0  0  0  0  0  0  0  0  0  0  0  0
   34.8101   37.8361   21.4769 C   0  0  0  0  0  0  0  0  0  0  0  0
   33.8956   37.6546   23.6689 N   0  0  0  0  0  0  0  0  0  0  0  0
   34.0057   38.9765   23.7650 C   0  0  0  0  0  0  0  0  0  0  0  0
   34.4599   39.8029   22.8238 N   0  0  0  0  0  0  0  0  0  0  0  0
   34.8488   39.2321   21.6643 C   0  0  0  0  0  0  0  0  0  0  0  0
   33.6540   39.5493   24.9708 N   0  0  0  0  0  0  0  0  0  0  0  0
   33.0563   38.8282   26.0912 C   0  0  0  0  0  0  0  0  0  0  0  0
   33.3618   39.5322   27.4232 C   0  0  0  0  0  0  0  0  0  0  0  0
   32.6663   38.7996   28.5811 C   0  0  0  0  0  0  0  0  0  0  0  0
   31.2660   38.7432   28.3418 O   0  0  0  0  0  0  0  0  0  0  0  0
   30.9244   38.0070   27.1720 C   0  0  0  0  0  0  0  0  0  0  0  0
   31.5320   38.6872   25.9301 C   0  0  0  0  0  0  0  0  0  0  0  0
   34.8144   34.4995   14.3250 H   0  0  0  0  0  0  0  0  0  0  0  0
   32.3771   34.8918   14.6132 H   0  0  0  0  0  0  0  0  0  0  0  0
   31.5051   35.4796   16.8513 H   0  0  0  0  0  0  0  0  0  0  0  0
   32.9345   35.5245   18.8183 H   0  0  0  0  0  0  0  0  0  0  0  0
   35.7536   34.1000   19.1413 H   0  0  0  0  0  0  0  0  0  0  0  0
   36.6551   35.5498   18.6513 H   0  0  0  0  0  0  0  0  0  0  0  0
   35.7166   37.7572   19.4972 H   0  0  0  0  0  0  0  0  0  0  0  0
   34.0280   35.2120   24.4264 H   0  0  0  0  0  0  0  0  0  0  0  0
   32.5744   34.9034   23.4721 H   0  0  0  0  0  0  0  0  0  0  0  0
   33.9416   33.7907   23.4312 H   0  0  0  0  0  0  0  0  0  0  0  0
   35.2234   39.8831   20.8907 H   0  0  0  0  0  0  0  0  0  0  0  0
   33.7516   40.5528   25.0621 H   0  0  0  0  0  0  0  0  0  0  0  0
   33.4935   37.8315   26.1428 H   0  0  0  0  0  0  0  0  0  0  0  0
   34.4360   39.5646   27.5975 H   0  0  0  0  0  0  0  0  0  0  0  0
   33.0142   40.5640   27.3952 H   0  0  0  0  0  0  0  0  0  0  0  0
   33.0681   37.7929   28.7047 H   0  0  0  0  0  0  0  0  0  0  0  0
   32.8413   39.3311   29.5172 H   0  0  0  0  0  0  0  0  0  0  0  0
   31.2717   36.9782   27.2626 H   0  0  0  0  0  0  0  0  0  0  0  0
   29.8387   37.9685   27.0942 H   0  0  0  0  0  0  0  0  0  0  0  0
   31.0828   39.6691   25.7959 H   0  0  0  0  0  0  0  0  0  0  0  0
   31.2974   38.1097   25.0366 H   0  0  0  0  0  0  0  0  0  0  0  0
  1  2  1  0
  2  7  2  0
  2  3  1  0
  3  4  2  0
  3 28  1  0
  4  5  1  0
  4 29  1  0
  5  6  2  0
  5 30  1  0
  6  7  1  0
  6 31  1  0
  7  8  1  0
  8  9  1  0
  8 32  1  0
  8 33  1  0
  9 10  2  0
  9 11  1  0
 10 16  1  0
 10 34  1  0
 11 12  2  0
 11 13  1  0
 13 14  1  0
 13 15  1  0
 14 35  1  0
 14 36  1  0
 14 37  1  0
 15 16  2  0
 15 17  1  0
 16 20  1  0
 17 18  2  0
 18 19  1  0
 18 21  1  0
 19 20  2  0
 20 38  1  0
 21 22  1  0
 21 39  1  0
 22 27  1  0
 22 23  1  0
 22 40  1  0
 23 24  1  0
 23 41  1  0
 23 42  1  0
 24 25  1  0
 24 43  1  0
 24 44  1  0
 25 26  1  0
 26 27  1  0
 26 45  1  0
 26 46  1  0
 27 47  1  0
 27 48  1  0
M  END
>  <s_m_entry_id>  (1) 
285

>  <i_f3d_flags>  (1) 
0

>  <r_lp_tautomer_probability>  (1) 
1

>  <r_epik_Ionization_Penalty>  (1) 
  0.0000

>  <r_epik_State_Penalty>  (1) 
  0.0000

>  <i_epik_Tot_Q>  (1) 
0

>  <s_m_job_name>  (1) 
glide-dock_SP_p38_core_cons_top_1

>  <r_i_docking_score>  (1) 
-5.84337586636674

>  <r_i_glide_gscore>  (1) 
-5.84337586636674

>  <r_i_glide_emodel>  (1) 
-29.6505939572098

>  <index_string>  (1) 
11:0:0

$$$$
