41:0:0
     RDKit          3D

 48 52  0  0  1  0  0  0  0  0999 V2000
   -4.2528   -2.8096   15.6346 C   0  0  0  0  0  0  0  0  0  0  0  0
   -3.6878   -1.9268   14.6751 O   0  0  0  0  0  0  0  0  0  0  0  0
   -2.3147   -1.7834   14.6562 C   0  0  0  0  0  0  0  0  0  0  0  0
   -1.4342   -2.5770   15.4309 C   0  0  0  0  0  0  0  0  0  0  0  0
   -0.0493   -2.3385   15.4117 C   0  0  0  0  0  0  0  0  0  0  0  0
    0.4986   -1.3170   14.6137 C   0  0  0  0  0  0  0  0  0  0  0  0
    1.8951   -1.1385   14.6826 N   0  0  0  0  0  0  0  0  0  0  0  0
    2.7399   -0.1136   14.2158 C   0  0  0  0  0  0  0  0  0  0  0  0
    2.3201    0.7275   13.3145 N   0  0  0  0  0  0  0  0  0  0  0  0
    3.1384    1.7470   12.8798 C   0  0  0  0  0  0  0  0  0  0  0  0
    4.4205    1.9099   13.3393 C   0  0  0  0  0  0  0  0  0  0  0  0
    4.8506    1.0563   14.3008 N   0  0  0  0  0  0  0  0  0  0  0  0
    6.0299    1.0159   15.0155 C   0  0  0  0  0  0  0  0  0  0  0  0
    5.8981    0.0012   15.9176 C   0  0  0  0  0  0  0  0  0  0  0  0
    4.6663   -0.6322   15.7921 N   0  0  0  0  0  0  0  0  0  0  0  0
    4.0400    0.0040   14.7935 C   0  0  0  0  0  0  0  0  0  0  0  0
    2.5599    2.6444   11.8571 C   0  0  0  0  0  0  0  0  0  0  0  0
    3.3623    3.1747   10.8185 C   0  0  0  0  0  0  0  0  0  0  0  0
    2.8034    3.9891    9.8172 C   0  0  0  0  0  0  0  0  0  0  0  0
    1.4293    4.2762    9.8514 C   0  0  0  0  0  0  0  0  0  0  0  0
    0.6078    5.0108    9.0194 N   0  0  0  0  0  0  0  0  0  0  0  0
   -0.6994    4.9889    9.4760 C   0  0  0  0  0  0  0  0  0  0  0  0
   -0.7520    4.2458   10.6261 C   0  0  0  0  0  0  0  0  0  0  0  0
    0.5843    3.7815   10.8856 C   0  0  0  0  0  0  0  0  0  0  0  0
    1.1842    2.9806   11.8843 C   0  0  0  0  0  0  0  0  0  0  0  0
   -0.3810   -0.5495   13.8114 C   0  0  0  0  0  0  0  0  0  0  0  0
   -1.7828   -0.7746   13.8253 C   0  0  0  0  0  0  0  0  0  0  0  0
   -2.6864   -0.0396   13.0796 O   0  0  0  0  0  0  0  0  0  0  0  0
   -2.1776    0.8825   12.1264 C   0  0  0  0  0  0  0  0  0  0  0  0
   -5.3400   -2.7568   15.5787 H   0  0  0  0  0  0  0  0  0  0  0  0
   -3.9620   -2.5359   16.6500 H   0  0  0  0  0  0  0  0  0  0  0  0
   -3.9646   -3.8439   15.4429 H   0  0  0  0  0  0  0  0  0  0  0  0
   -1.7953   -3.3667   16.0730 H   0  0  0  0  0  0  0  0  0  0  0  0
    0.5927   -2.9458   16.0341 H   0  0  0  0  0  0  0  0  0  0  0  0
    2.3588   -1.7420   15.3483 H   0  0  0  0  0  0  0  0  0  0  0  0
    5.0889    2.7080   13.0354 H   0  0  0  0  0  0  0  0  0  0  0  0
    6.8243    1.7192   14.8151 H   0  0  0  0  0  0  0  0  0  0  0  0
    6.6054   -0.3379   16.6568 H   0  0  0  0  0  0  0  0  0  0  0  0
    4.4136    2.9321   10.7728 H   0  0  0  0  0  0  0  0  0  0  0  0
    3.4215    4.3765    9.0217 H   0  0  0  0  0  0  0  0  0  0  0  0
    0.8997    5.5239    8.2006 H   0  0  0  0  0  0  0  0  0  0  0  0
   -1.4851    5.5110    8.9475 H   0  0  0  0  0  0  0  0  0  0  0  0
   -1.6235    4.0410   11.2304 H   0  0  0  0  0  0  0  0  0  0  0  0
    0.5629    2.5950   12.6784 H   0  0  0  0  0  0  0  0  0  0  0  0
    0.0060    0.2235   13.1763 H   0  0  0  0  0  0  0  0  0  0  0  0
   -3.0037    1.3021   11.5536 H   0  0  0  0  0  0  0  0  0  0  0  0
   -1.6633    1.7114   12.6158 H   0  0  0  0  0  0  0  0  0  0  0  0
   -1.5004    0.4031   11.4177 H   0  0  0  0  0  0  0  0  0  0  0  0
  1  2  1  0
  1 30  1  0
  1 31  1  0
  1 32  1  0
  2  3  1  0
  3  4  2  0
  3 27  1  0
  4  5  1  0
  4 33  1  0
  5  6  2  0
  5 34  1  0
  6  7  1  0
  6 26  1  0
  7  8  1  0
  7 35  1  0
  8  9  2  0
  8 16  1  0
  9 10  1  0
 10 11  2  0
 10 17  1  0
 11 12  1  0
 11 36  1  0
 12 13  1  0
 12 16  1  0
 13 14  2  0
 13 37  1  0
 14 15  1  0
 14 38  1  0
 15 16  2  0
 17 18  2  0
 17 25  1  0
 18 19  1  0
 18 39  1  0
 19 20  2  0
 19 40  1  0
 20 21  1  0
 20 24  1  0
 21 22  1  0
 21 41  1  0
 22 23  2  0
 22 42  1  0
 23 24  1  0
 23 43  1  0
 24 25  2  0
 25 44  1  0
 26 27  2  0
 26 45  1  0
 27 28  1  0
 28 29  1  0
 29 46  1  0
 29 47  1  0
 29 48  1  0
M  END
>  <s_m_entry_id>  (1) 
721

>  <IC50[nM]>  (1) 
8.6

>  <s_m_Source_Path>  (1) 
/projects/mai/users/kmzp800_harry/pmx_colab/docking_jobs/syk

>  <s_m_Source_File>  (1) 
tnks2_lig.sdf

>  <i_m_Source_File_Index>  (1) 
42

>  <s_m_job_name>  (1) 
glide-dock_SP_tnks2_no_const

>  <r_i_docking_score>  (1) 
-6.81035172821976

>  <r_i_glide_gscore>  (1) 
-6.81035172821976

>  <r_i_glide_emodel>  (1) 
-61.9484318156425

>  <index_string>  (1) 
41:0:0

$$$$
