41:0:0
     RDKit          3D

 55 60  0  0  1  0  0  0  0  0999 V2000
   -4.7885   -4.4943   15.7614 C   0  0  0  0  0  0  0  0  0  0  0  0
   -5.3797   -5.0114   14.4330 C   0  0  0  0  0  0  0  0  0  0  0  0
   -4.4284   -4.8505   13.2282 O   0  0  0  0  0  0  0  0  0  0  0  0
   -4.4843   -3.4756   12.5387 C   0  0  0  0  0  0  0  0  0  0  0  0
   -4.6078   -2.2537   13.4645 C   0  0  0  0  0  0  0  0  0  0  0  0
   -3.8668   -2.4066   14.7182 N   0  0  0  0  0  0  0  0  0  0  0  0
   -4.6426   -2.9544   15.8439 C   0  0  0  0  0  0  0  0  0  0  0  0
   -2.5304   -2.1088   14.8043 C   0  0  0  0  0  0  0  0  0  0  0  0
   -1.9381   -1.0743   14.0627 C   0  0  0  0  0  0  0  0  0  0  0  0
   -0.5669   -0.8222   14.2155 C   0  0  0  0  0  0  0  0  0  0  0  0
    0.2189   -1.5878   15.0874 C   0  0  0  0  0  0  0  0  0  0  0  0
    1.5949   -1.3540   15.3078 N   0  0  0  0  0  0  0  0  0  0  0  0
    2.5430   -0.4697   14.7500 C   0  0  0  0  0  0  0  0  0  0  0  0
    2.2134    0.3506   13.7173 N   0  0  0  0  0  0  0  0  0  0  0  0
    3.1244    1.2412   13.2158 C   0  0  0  0  0  0  0  0  0  0  0  0
    4.4190    1.3004   13.7147 C   0  0  0  0  0  0  0  0  0  0  0  0
    4.7494    0.4918   14.7642 N   0  0  0  0  0  0  0  0  0  0  0  0
    5.8879    0.3810   15.5041 C   0  0  0  0  0  0  0  0  0  0  0  0
    5.5696   -0.5102   16.5172 C   0  0  0  0  0  0  0  0  0  0  0  0
    4.3819   -1.0524   16.3954 N   0  0  0  0  0  0  0  0  0  0  0  0
    3.8327   -0.4186   15.3276 C   0  0  0  0  0  0  0  0  0  0  0  0
    2.6582    2.1564   12.1295 C   0  0  0  0  0  0  0  0  0  0  0  0
    3.5522    2.6301   11.1707 C   0  0  0  0  0  0  0  0  0  0  0  0
    3.1317    3.4507   10.1268 C   0  0  0  0  0  0  0  0  0  0  0  0
    1.7894    3.8116   10.0313 C   0  0  0  0  0  0  0  0  0  0  0  0
    0.9652    4.5743    9.1484 C   0  0  0  0  0  0  0  0  0  0  0  0
   -0.2869    4.5935    9.5456 N   0  0  0  0  0  0  0  0  0  0  0  0
   -0.3278    3.9231   10.5702 N   0  0  0  0  0  0  0  0  0  0  0  0
    0.8619    3.3699   10.9934 C   0  0  0  0  0  0  0  0  0  0  0  0
    1.3122    2.5540   12.0379 C   0  0  0  0  0  0  0  0  0  0  0  0
   -0.3859   -2.6060   15.8131 C   0  0  0  0  0  0  0  0  0  0  0  0
   -1.7539   -2.8689   15.6761 C   0  0  0  0  0  0  0  0  0  0  0  0
   -3.8214   -4.9547   15.9310 H   0  0  0  0  0  0  0  0  0  0  0  0
   -5.4275   -4.8169   16.5780 H   0  0  0  0  0  0  0  0  0  0  0  0
   -5.5829   -6.0806   14.5619 H   0  0  0  0  0  0  0  0  0  0  0  0
   -6.3514   -4.5539   14.2289 H   0  0  0  0  0  0  0  0  0  0  0  0
   -5.3148   -3.4801   11.8379 H   0  0  0  0  0  0  0  0  0  0  0  0
   -3.5970   -3.3478   11.9259 H   0  0  0  0  0  0  0  0  0  0  0  0
   -5.6561   -2.0372   13.6653 H   0  0  0  0  0  0  0  0  0  0  0  0
   -4.2315   -1.3723   12.9411 H   0  0  0  0  0  0  0  0  0  0  0  0
   -4.1872   -2.6900   16.8001 H   0  0  0  0  0  0  0  0  0  0  0  0
   -5.6326   -2.4990   15.8685 H   0  0  0  0  0  0  0  0  0  0  0  0
   -2.5301   -0.4779   13.3803 H   0  0  0  0  0  0  0  0  0  0  0  0
   -0.1135   -0.0265   13.6493 H   0  0  0  0  0  0  0  0  0  0  0  0
    2.0593   -1.9916   15.9388 H   0  0  0  0  0  0  0  0  0  0  0  0
    5.1960    1.9642   13.3415 H   0  0  0  0  0  0  0  0  0  0  0  0
    6.7757    0.9380   15.2339 H   0  0  0  0  0  0  0  0  0  0  0  0
    6.1644   -0.8023   17.3683 H   0  0  0  0  0  0  0  0  0  0  0  0
    4.5963    2.3518   11.2245 H   0  0  0  0  0  0  0  0  0  0  0  0
    3.8384    3.8099    9.4046 H   0  0  0  0  0  0  0  0  0  0  0  0
    1.2464    5.1124    8.2535 H   0  0  0  0  0  0  0  0  0  0  0  0
   -1.2059    3.8075   11.0687 H   0  0  0  0  0  0  0  0  0  0  0  0
    0.5995    2.2605   12.7926 H   0  0  0  0  0  0  0  0  0  0  0  0
    0.1866   -3.2310   16.4821 H   0  0  0  0  0  0  0  0  0  0  0  0
   -2.2025   -3.6731   16.2497 H   0  0  0  0  0  0  0  0  0  0  0  0
  1  2  1  0
  1  7  1  0
  1 33  1  0
  1 34  1  0
  2  3  1  0
  2 35  1  0
  2 36  1  0
  3  4  1  0
  4  5  1  0
  4 37  1  0
  4 38  1  0
  5  6  1  0
  5 39  1  0
  5 40  1  0
  6  7  1  0
  6  8  1  0
  7 41  1  0
  7 42  1  0
  8  9  2  0
  8 32  1  0
  9 10  1  0
  9 43  1  0
 10 11  2  0
 10 44  1  0
 11 12  1  0
 11 31  1  0
 12 13  1  0
 12 45  1  0
 13 14  2  0
 13 21  1  0
 14 15  1  0
 15 16  2  0
 15 22  1  0
 16 17  1  0
 16 46  1  0
 17 18  1  0
 17 21  1  0
 18 19  2  0
 18 47  1  0
 19 20  1  0
 19 48  1  0
 20 21  2  0
 22 23  2  0
 22 30  1  0
 23 24  1  0
 23 49  1  0
 24 25  2  0
 24 50  1  0
 25 26  1  0
 25 29  1  0
 26 27  2  0
 26 51  1  0
 27 28  1  0
 28 29  1  0
 28 52  1  0
 29 30  2  0
 30 53  1  0
 31 32  2  0
 31 54  1  0
 32 55  1  0
M  END
>  <s_m_entry_id>  (1) 
2062

>  <IC50[nM]>  (1) 
23.1

>  <s_m_Source_Path>  (1) 
/projects/mai/users/kmzp800_harry/pmx_colab/docking_jobs/syk

>  <s_m_Source_File>  (1) 
tnks2_lig.sdf

>  <i_m_Source_File_Index>  (1) 
30

>  <s_m_job_name>  (1) 
glide-dock_SP_syk_single_compound_mcs_8

>  <r_i_docking_score>  (1) 
-6.31818168086354

>  <r_i_glide_gscore>  (1) 
-6.31818168086354

>  <r_i_glide_emodel>  (1) 
-51.739803314209

>  <index_string>  (1) 
41:0:0

$$$$
