8:0:0
     RDKit          3D

 27 29  0  0  1  0  0  0  0  0999 V2000
  -15.0424  -19.7651  -25.6931 C   0  0  0  0  0  0  0  0  0  0  0  0
  -14.8490  -20.5410  -26.8570 C   0  0  0  0  0  0  0  0  0  0  0  0
  -15.0491  -20.4063  -24.4359 C   0  0  0  0  0  0  0  0  0  0  0  0
  -14.6561  -21.9343  -26.7503 C   0  0  0  0  0  0  0  0  0  0  0  0
  -14.8481  -21.7944  -24.3338 C   0  0  0  0  0  0  0  0  0  0  0  0
  -14.7357  -17.5670  -26.7217 N   0  0  0  0  0  0  0  0  0  0  0  0
  -14.6504  -22.5618  -25.4926 C   0  0  0  0  0  0  0  0  0  0  0  0
  -14.9383  -16.1702  -26.7385 C   0  0  0  0  0  0  0  0  0  0  0  0
  -15.7337  -15.5304  -25.7560 C   0  0  0  0  0  0  0  0  0  0  0  0
  -15.2426  -13.3513  -26.7334 C   0  0  0  0  0  0  0  0  0  0  0  0
  -14.4535  -13.9776  -27.7195 C   0  0  0  0  0  0  0  0  0  0  0  0
  -15.8920  -14.1274  -25.7547 C   0  0  0  0  0  0  0  0  0  0  0  0
  -14.3176  -15.3807  -27.7280 C   0  0  0  0  0  0  0  0  0  0  0  0
  -16.4051  -16.3967  -24.7387 C   0  0  0  0  0  0  0  0  0  0  0  0
  -16.0482  -17.6862  -24.7750 N   0  0  0  0  0  0  0  0  0  0  0  0
  -15.2480  -18.2849  -25.7591 C   0  0  0  0  0  0  0  0  0  0  0  0
  -17.2335  -15.9721  -23.9386 O   0  0  0  0  0  0  0  0  0  0  0  0
  -14.8418  -20.0742  -27.8318 H   0  0  0  0  0  0  0  0  0  0  0  0
  -15.2062  -19.8351  -23.5384 H   0  0  0  0  0  0  0  0  0  0  0  0
  -14.5080  -22.5290  -27.6356 H   0  0  0  0  0  0  0  0  0  0  0  0
  -14.8452  -22.2677  -23.3640 H   0  0  0  0  0  0  0  0  0  0  0  0
  -13.9588  -13.3806  -28.4721 H   0  0  0  0  0  0  0  0  0  0  0  0
  -16.5011  -13.6446  -25.0031 H   0  0  0  0  0  0  0  0  0  0  0  0
  -16.5372  -18.2874  -24.1202 H   0  0  0  0  0  0  0  0  0  0  0  0
  -13.7105  -15.8508  -28.4874 H   0  0  0  0  0  0  0  0  0  0  0  0
  -15.3485  -12.2760  -26.7304 H   0  0  0  0  0  0  0  0  0  0  0  0
  -14.4973  -23.6291  -25.4163 H   0  0  0  0  0  0  0  0  0  0  0  0
  1  2  2  0
  1  3  1  0
  1 16  1  0
  2  4  1  0
  2 18  1  0
  3  5  2  0
  3 19  1  0
  4  7  2  0
  4 20  1  0
  5  7  1  0
  5 21  1  0
  6  8  1  0
  6 16  2  0
  7 27  1  0
  8  9  2  0
  8 13  1  0
  9 12  1  0
  9 14  1  0
 10 11  1  0
 10 12  2  0
 10 26  1  0
 11 13  2  0
 11 22  1  0
 12 23  1  0
 13 25  1  0
 14 15  1  0
 14 17  2  0
 15 16  1  0
 15 24  1  0
M  END
>  <s_m_entry_id>  (1) 
423

>  <Name>  (1) 
1a

>  <IC50[nM]>  (1) 
540

>  <s_m_Source_Path>  (1) 
/projects/mai/users/kmzp800_harry/pmx_colab/docking_jobs/tnks2

>  <s_m_Source_File>  (1) 
tnks2_lig.sdf

>  <i_m_Source_File_Index>  (1) 
9

>  <s_m_job_name>  (1) 
glide-dock_SP_tnks2_no_cons

>  <r_i_docking_score>  (1) 
-9.59383876576789

>  <r_i_glide_gscore>  (1) 
-9.59383876576789

>  <r_i_glide_emodel>  (1) 
-65.0058068505778

>  <index_string>  (1) 
8:0:0

$$$$
