10:0:0
     RDKit          3D

 52 55  0  0  1  0  0  0  0  0999 V2000
   -4.5486   -3.2089   15.5252 C   0  0  0  0  0  0  0  0  0  0  0  0
   -3.9024   -2.2714   14.6759 O   0  0  0  0  0  0  0  0  0  0  0  0
   -2.5415   -2.0965   14.8227 C   0  0  0  0  0  0  0  0  0  0  0  0
   -1.7382   -2.8660   15.7005 C   0  0  0  0  0  0  0  0  0  0  0  0
   -0.3614   -2.6062   15.8182 C   0  0  0  0  0  0  0  0  0  0  0  0
    0.2449   -1.5763   15.0734 C   0  0  0  0  0  0  0  0  0  0  0  0
    1.6118   -1.3460   15.2932 N   0  0  0  0  0  0  0  0  0  0  0  0
    2.5286   -0.4420   14.7296 C   0  0  0  0  0  0  0  0  0  0  0  0
    2.1951    0.3588   13.7576 N   0  0  0  0  0  0  0  0  0  0  0  0
    3.1266    1.2354   13.2378 C   0  0  0  0  0  0  0  0  0  0  0  0
    4.4299    1.2763   13.6836 C   0  0  0  0  0  0  0  0  0  0  0  0
    4.7635    0.4695   14.7210 N   0  0  0  0  0  0  0  0  0  0  0  0
    5.9077    0.3744   15.4874 C   0  0  0  0  0  0  0  0  0  0  0  0
    5.5969   -0.4925   16.5030 C   0  0  0  0  0  0  0  0  0  0  0  0
    4.3536   -1.0647   16.3273 N   0  0  0  0  0  0  0  0  0  0  0  0
    3.8300   -0.4210   15.2921 C   0  0  0  0  0  0  0  0  0  0  0  0
    2.6535    2.1375   12.1568 C   0  0  0  0  0  0  0  0  0  0  0  0
    3.5675    2.6043   11.1838 C   0  0  0  0  0  0  0  0  0  0  0  0
    3.1547    3.4518   10.1434 C   0  0  0  0  0  0  0  0  0  0  0  0
    1.8095    3.8580   10.0455 C   0  0  0  0  0  0  0  0  0  0  0  0
    1.4367    4.8947    9.0223 C   0  0  0  0  0  0  0  0  0  0  0  0
    2.2643    5.7082    8.6185 O   0  0  0  0  0  0  0  0  0  0  0  0
    0.1849    4.8646    8.5626 N   0  0  0  0  0  0  0  0  0  0  0  0
    0.8787    3.3953   11.0158 C   0  0  0  0  0  0  0  0  0  0  0  0
   -0.4363    3.8019   10.9731 O   0  0  0  0  0  0  0  0  0  0  0  0
   -0.9758    4.3373   12.1768 C   0  0  0  0  0  0  0  0  0  0  0  0
    1.3059    2.5386   12.0540 C   0  0  0  0  0  0  0  0  0  0  0  0
   -0.5535   -0.8277   14.1843 C   0  0  0  0  0  0  0  0  0  0  0  0
   -1.9369   -1.0801   14.0507 C   0  0  0  0  0  0  0  0  0  0  0  0
   -2.7469   -0.3633   13.1982 O   0  0  0  0  0  0  0  0  0  0  0  0
   -2.1823    0.6685   12.4277 C   0  0  0  0  0  0  0  0  0  0  0  0
   -5.6198   -3.1978   15.3259 H   0  0  0  0  0  0  0  0  0  0  0  0
   -4.1913   -4.2230   15.3451 H   0  0  0  0  0  0  0  0  0  0  0  0
   -4.4090   -2.9577   16.5775 H   0  0  0  0  0  0  0  0  0  0  0  0
   -2.1539   -3.6545   16.3101 H   0  0  0  0  0  0  0  0  0  0  0  0
    0.2259   -3.1972   16.5083 H   0  0  0  0  0  0  0  0  0  0  0  0
    2.0292   -1.9187   16.0164 H   0  0  0  0  0  0  0  0  0  0  0  0
    5.1882    1.9657   13.3288 H   0  0  0  0  0  0  0  0  0  0  0  0
    6.7652    0.9976   15.2812 H   0  0  0  0  0  0  0  0  0  0  0  0
    6.1207   -0.7389   17.4016 H   0  0  0  0  0  0  0  0  0  0  0  0
    4.6051    2.3084   11.2142 H   0  0  0  0  0  0  0  0  0  0  0  0
    3.8853    3.8068    9.4306 H   0  0  0  0  0  0  0  0  0  0  0  0
   -0.1195    5.5461    7.8842 H   0  0  0  0  0  0  0  0  0  0  0  0
   -0.4654    4.2077    8.9710 H   0  0  0  0  0  0  0  0  0  0  0  0
   -1.3689    5.3328   11.9720 H   0  0  0  0  0  0  0  0  0  0  0  0
   -1.8047    3.7231   12.5282 H   0  0  0  0  0  0  0  0  0  0  0  0
   -0.2541    4.4413   12.9909 H   0  0  0  0  0  0  0  0  0  0  0  0
    0.5935    2.1938   12.7874 H   0  0  0  0  0  0  0  0  0  0  0  0
   -0.1180   -0.0408   13.6012 H   0  0  0  0  0  0  0  0  0  0  0  0
   -2.9584    1.1316   11.8191 H   0  0  0  0  0  0  0  0  0  0  0  0
   -1.7530    1.4426   13.0634 H   0  0  0  0  0  0  0  0  0  0  0  0
   -1.4190    0.2895   11.7460 H   0  0  0  0  0  0  0  0  0  0  0  0
  1  2  1  0
  1 32  1  0
  1 33  1  0
  1 34  1  0
  2  3  1  0
  3  4  2  0
  3 29  1  0
  4  5  1  0
  4 35  1  0
  5  6  2  0
  5 36  1  0
  6  7  1  0
  6 28  1  0
  7  8  1  0
  7 37  1  0
  8  9  2  0
  8 16  1  0
  9 10  1  0
 10 11  2  0
 10 17  1  0
 11 12  1  0
 11 38  1  0
 12 13  1  0
 12 16  1  0
 13 14  2  0
 13 39  1  0
 14 15  1  0
 14 40  1  0
 15 16  2  0
 17 18  2  0
 17 27  1  0
 18 19  1  0
 18 41  1  0
 19 20  2  0
 19 42  1  0
 20 21  1  0
 20 24  1  0
 21 22  2  0
 21 23  1  0
 23 43  1  0
 23 44  1  0
 24 25  1  0
 24 27  2  0
 25 26  1  0
 26 45  1  0
 26 46  1  0
 26 47  1  0
 27 48  1  0
 28 29  2  0
 28 49  1  0
 29 30  1  0
 30 31  1  0
 31 50  1  0
 31 51  1  0
 31 52  1  0
M  END
>  <s_m_entry_id>  (1) 
1118

>  <IC50[nM]>  (1) 
23.8

>  <s_m_Source_Path>  (1) 
/projects/mai/users/kmzp800_harry/pmx_colab/docking_jobs/syk

>  <s_m_Source_File>  (1) 
tnks2_lig.sdf

>  <i_m_Source_File_Index>  (1) 
12

>  <s_m_job_name>  (1) 
glide-dock_SP_syk_mcs

>  <r_i_docking_score>  (1) 
-6.58616907944038

>  <r_i_glide_gscore>  (1) 
-6.58616907944038

>  <r_i_glide_emodel>  (1) 
-48.7550099816637

>  <index_string>  (1) 
10:0:0

$$$$
