14:0:0
     RDKit          3D

 46 49  0  0  1  0  0  0  0  0999 V2000
  -14.4103  -14.8751  -27.7212 C   0  0  0  0  0  0  0  0  0  0  0  0
  -15.0256  -15.6330  -26.7103 C   0  0  0  0  0  0  0  0  0  0  0  0
  -14.4843  -13.4859  -27.6908 C   0  0  0  0  0  0  0  0  0  0  0  0
  -15.7528  -15.0154  -25.6704 C   0  0  0  0  0  0  0  0  0  0  0  0
  -14.8371  -17.0224  -26.7476 N   0  0  0  0  0  0  0  0  0  0  0  0
  -15.2289  -12.8553  -26.6872 C   0  0  0  0  0  0  0  0  0  0  0  0
  -15.8688  -13.6035  -25.6623 C   0  0  0  0  0  0  0  0  0  0  0  0
  -16.3511  -15.9367  -24.6327 C   0  0  0  0  0  0  0  0  0  0  0  0
  -16.1122  -17.2379  -24.8119 N   0  0  0  0  0  0  0  0  0  0  0  0
  -17.0193  -15.5727  -23.6809 O   0  0  0  0  0  0  0  0  0  0  0  0
  -15.3572  -17.7882  -25.8399 C   0  0  0  0  0  0  0  0  0  0  0  0
  -15.1945  -19.2588  -25.9257 C   0  0  0  0  0  0  0  0  0  0  0  0
  -14.7798  -19.8401  -27.1330 C   0  0  0  0  0  0  0  0  0  0  0  0
  -14.5659  -21.2146  -27.2153 C   0  0  0  0  0  0  0  0  0  0  0  0
  -14.7821  -22.0550  -26.1079 C   0  0  0  0  0  0  0  0  0  0  0  0
  -15.2397  -21.4813  -24.9038 C   0  0  0  0  0  0  0  0  0  0  0  0
  -15.4420  -20.0888  -24.8167 C   0  0  0  0  0  0  0  0  0  0  0  0
  -13.6926  -15.4751  -28.6979 F   0  0  0  0  0  0  0  0  0  0  0  0
  -15.2600  -11.5133  -26.7383 F   0  0  0  0  0  0  0  0  0  0  0  0
  -14.5201  -23.5502  -26.2154 C   0  0  0  0  0  0  0  0  0  0  0  0
  -15.5222  -24.2273  -27.1669 C   0  0  0  0  0  0  0  0  0  0  0  0
  -15.2199  -25.7228  -27.3438 C   0  0  0  0  0  0  0  0  0  0  0  0
  -13.8256  -25.9366  -27.8112 N   0  0  0  0  0  0  0  0  0  0  0  0
  -12.8244  -25.3460  -26.8887 C   0  0  0  0  0  0  0  0  0  0  0  0
  -13.0758  -23.8464  -26.6712 C   0  0  0  0  0  0  0  0  0  0  0  0
  -13.5445  -27.3597  -28.1057 C   0  0  0  0  0  0  0  0  0  0  0  0
  -13.9875  -12.8957  -28.4480 H   0  0  0  0  0  0  0  0  0  0  0  0
  -16.4224  -13.1003  -24.8818 H   0  0  0  0  0  0  0  0  0  0  0  0
  -16.5551  -17.8672  -24.1547 H   0  0  0  0  0  0  0  0  0  0  0  0
  -14.5827  -19.2364  -28.0068 H   0  0  0  0  0  0  0  0  0  0  0  0
  -14.2087  -21.5735  -28.1601 H   0  0  0  0  0  0  0  0  0  0  0  0
  -15.4218  -22.0997  -24.0372 H   0  0  0  0  0  0  0  0  0  0  0  0
  -15.7732  -19.6770  -23.8753 H   0  0  0  0  0  0  0  0  0  0  0  0
  -14.6526  -23.9749  -25.2202 H   0  0  0  0  0  0  0  0  0  0  0  0
  -15.4952  -23.7448  -28.1421 H   0  0  0  0  0  0  0  0  0  0  0  0
  -16.5373  -24.0932  -26.7891 H   0  0  0  0  0  0  0  0  0  0  0  0
  -15.9149  -26.1455  -28.0714 H   0  0  0  0  0  0  0  0  0  0  0  0
  -15.3907  -26.2516  -26.4062 H   0  0  0  0  0  0  0  0  0  0  0  0
  -11.8211  -25.4873  -27.2952 H   0  0  0  0  0  0  0  0  0  0  0  0
  -12.8474  -25.8743  -25.9395 H   0  0  0  0  0  0  0  0  0  0  0  0
  -12.3743  -23.4616  -25.9312 H   0  0  0  0  0  0  0  0  0  0  0  0
  -12.8509  -23.3262  -27.6016 H   0  0  0  0  0  0  0  0  0  0  0  0
  -13.6205  -27.9690  -27.2034 H   0  0  0  0  0  0  0  0  0  0  0  0
  -14.2477  -27.7507  -28.8419 H   0  0  0  0  0  0  0  0  0  0  0  0
  -12.5393  -27.4799  -28.5136 H   0  0  0  0  0  0  0  0  0  0  0  0
  -13.7379  -25.4404  -28.6860 H   0  0  0  0  0  0  0  0  0  0  0  0
  1  2  2  0
  1  3  1  0
  1 18  1  0
  2  4  1  0
  2  5  1  0
  3  6  2  0
  3 27  1  0
  4  7  2  0
  4  8  1  0
  5 11  2  0
  6  7  1  0
  6 19  1  0
  7 28  1  0
  8  9  1  0
  8 10  2  0
  9 11  1  0
  9 29  1  0
 11 12  1  0
 12 13  2  0
 12 17  1  0
 13 14  1  0
 13 30  1  0
 14 15  2  0
 14 31  1  0
 15 16  1  0
 15 20  1  0
 16 17  2  0
 16 32  1  0
 17 33  1  0
 20 21  1  0
 20 25  1  0
 20 34  1  0
 21 22  1  0
 21 35  1  0
 21 36  1  0
 22 23  1  0
 22 37  1  0
 22 38  1  0
 23 24  1  0
 23 26  1  0
 23 46  1  0
 24 25  1  0
 24 39  1  0
 24 40  1  0
 25 41  1  0
 25 42  1  0
 26 43  1  0
 26 44  1  0
 26 45  1  0
M  CHG  1  23   1
M  END
>  <s_m_entry_id>  (1) 
456

>  <Name>  (1) 
8e

>  <IC50[nM]>  (1) 
31

>  <s_m_Source_Path>  (1) 
/projects/mai/users/kmzp800_harry/pmx_colab/docking_jobs/tnks2

>  <s_m_Source_File>  (1) 
tnks2_lig.sdf

>  <i_m_Source_File_Index>  (1) 
15

>  <s_m_job_name>  (1) 
glide-dock_SP_tnks2_core_const

>  <r_i_docking_score>  (1) 
-10.6811770731562

>  <r_i_glide_gscore>  (1) 
-10.6811770731562

>  <r_i_glide_emodel>  (1) 
-47.3731441336266

>  <index_string>  (1) 
14:0:0

$$$$
