21:0:0
     RDKit          3D

 37 39  0  0  1  0  0  0  0  0999 V2000
  -15.0904  -19.2728  -25.8072 C   0  0  0  0  0  0  0  0  0  0  0  0
  -14.8482  -19.9518  -27.0171 C   0  0  0  0  0  0  0  0  0  0  0  0
  -15.0968  -19.9916  -24.5939 C   0  0  0  0  0  0  0  0  0  0  0  0
  -14.5738  -21.3272  -27.0072 C   0  0  0  0  0  0  0  0  0  0  0  0
  -14.7970  -21.3611  -24.5859 C   0  0  0  0  0  0  0  0  0  0  0  0
  -14.8482  -17.0459  -26.7427 N   0  0  0  0  0  0  0  0  0  0  0  0
  -14.4934  -22.0318  -25.7917 C   0  0  0  0  0  0  0  0  0  0  0  0
  -14.0822  -23.4955  -25.7853 C   0  0  0  0  0  0  0  0  0  0  0  0
  -16.2366  -15.9585  -24.5245 C   0  0  0  0  0  0  0  0  0  0  0  0
  -16.0482  -17.2621  -24.7386 N   0  0  0  0  0  0  0  0  0  0  0  0
  -15.3110  -17.8063  -25.7914 C   0  0  0  0  0  0  0  0  0  0  0  0
  -16.8482  -15.5721  -23.5386 O   0  0  0  0  0  0  0  0  0  0  0  0
  -12.8748  -23.7854  -26.6793 C   0  0  0  0  0  0  0  0  0  0  0  0
  -13.6102  -23.8601  -24.5069 O   0  0  0  0  0  0  0  0  0  0  0  0
  -15.2715  -24.3727  -26.2030 C   0  0  0  0  0  0  0  0  0  0  0  0
  -15.0160  -15.6502  -26.6771 C   0  0  0  0  0  0  0  0  0  0  0  0
  -15.6482  -15.0460  -25.5625 C   0  0  0  0  0  0  0  0  0  0  0  0
  -15.6501  -13.6382  -25.4343 C   0  0  0  0  0  0  0  0  0  0  0  0
  -15.0666  -12.8348  -26.4320 C   0  0  0  0  0  0  0  0  0  0  0  0
  -14.4697  -13.4307  -27.5536 C   0  0  0  0  0  0  0  0  0  0  0  0
  -14.4482  -14.8309  -27.6774 C   0  0  0  0  0  0  0  0  0  0  0  0
  -13.8176  -15.3826  -28.7386 F   0  0  0  0  0  0  0  0  0  0  0  0
  -16.1627  -13.0445  -24.3386 F   0  0  0  0  0  0  0  0  0  0  0  0
  -14.8479  -19.4216  -27.9583 H   0  0  0  0  0  0  0  0  0  0  0  0
  -15.3028  -19.5055  -23.6523 H   0  0  0  0  0  0  0  0  0  0  0  0
  -14.3814  -21.8260  -27.9386 H   0  0  0  0  0  0  0  0  0  0  0  0
  -14.7839  -21.8790  -23.6379 H   0  0  0  0  0  0  0  0  0  0  0  0
  -16.4864  -17.8953  -24.0813 H   0  0  0  0  0  0  0  0  0  0  0  0
  -13.0556  -23.5743  -27.7313 H   0  0  0  0  0  0  0  0  0  0  0  0
  -12.5625  -24.8286  -26.6095 H   0  0  0  0  0  0  0  0  0  0  0  0
  -12.0482  -23.1727  -26.3386 H   0  0  0  0  0  0  0  0  0  0  0  0
  -12.8429  -23.3403  -24.3173 H   0  0  0  0  0  0  0  0  0  0  0  0
  -15.7040  -24.0385  -27.1464 H   0  0  0  0  0  0  0  0  0  0  0  0
  -14.9826  -25.4148  -26.3386 H   0  0  0  0  0  0  0  0  0  0  0  0
  -16.0482  -24.3403  -25.4425 H   0  0  0  0  0  0  0  0  0  0  0  0
  -15.0583  -11.7594  -26.3386 H   0  0  0  0  0  0  0  0  0  0  0  0
  -14.0124  -12.8120  -28.3127 H   0  0  0  0  0  0  0  0  0  0  0  0
  1  2  2  0
  1  3  1  0
  1 11  1  0
  2  4  1  0
  2 24  1  0
  3  5  2  0
  3 25  1  0
  4  7  2  0
  4 26  1  0
  5  7  1  0
  5 27  1  0
  6 11  2  0
  6 16  1  0
  7  8  1  0
  8 13  1  0
  8 14  1  0
  8 15  1  0
  9 10  1  0
  9 12  2  0
  9 17  1  0
 10 11  1  0
 10 28  1  0
 13 29  1  0
 13 30  1  0
 13 31  1  0
 14 32  1  0
 15 33  1  0
 15 34  1  0
 15 35  1  0
 16 17  2  0
 16 21  1  0
 17 18  1  0
 18 19  2  0
 18 23  1  0
 19 20  1  0
 19 36  1  0
 20 21  2  0
 20 37  1  0
 21 22  1  0
M  END
>  <s_m_entry_id>  (1) 
436

>  <Name>  (1) 
5l

>  <IC50[nM]>  (1) 
40

>  <s_m_Source_Path>  (1) 
/projects/mai/users/kmzp800_harry/pmx_colab/docking_jobs/tnks2

>  <s_m_Source_File>  (1) 
tnks2_lig.sdf

>  <i_m_Source_File_Index>  (1) 
22

>  <s_m_job_name>  (1) 
glide-dock_SP_tnks2_no_cons

>  <r_i_docking_score>  (1) 
-10.3909696371279

>  <r_i_glide_gscore>  (1) 
-10.3909696371279

>  <r_i_glide_emodel>  (1) 
-62.0316901141027

>  <index_string>  (1) 
21:0:0

$$$$
