21:0:0
     RDKit          3D

 36 38  0  0  1  0  0  0  0  0999 V2000
  -15.1765  -19.2488  -25.9271 C   0  0  0  0  0  0  0  0  0  0  0  0
  -14.8500  -19.7924  -27.1080 N   0  0  0  0  0  0  0  0  0  0  0  0
  -15.2856  -19.9674  -24.7238 C   0  0  0  0  0  0  0  0  0  0  0  0
  -15.3619  -17.7917  -25.8643 C   0  0  0  0  0  0  0  0  0  0  0  0
  -14.7054  -21.1172  -27.1575 C   0  0  0  0  0  0  0  0  0  0  0  0
  -15.0987  -21.3380  -24.7725 C   0  0  0  0  0  0  0  0  0  0  0  0
  -14.8562  -21.9349  -26.0333 C   0  0  0  0  0  0  0  0  0  0  0  0
  -16.1394  -17.2596  -24.8276 N   0  0  0  0  0  0  0  0  0  0  0  0
  -16.3807  -15.9596  -24.6230 C   0  0  0  0  0  0  0  0  0  0  0  0
  -14.8486  -17.0216  -26.7722 N   0  0  0  0  0  0  0  0  0  0  0  0
  -15.0320  -15.6417  -26.6888 C   0  0  0  0  0  0  0  0  0  0  0  0
  -15.7517  -15.0481  -25.6277 C   0  0  0  0  0  0  0  0  0  0  0  0
  -15.8795  -13.6465  -25.5545 C   0  0  0  0  0  0  0  0  0  0  0  0
  -15.2488  -12.8514  -26.5305 C   0  0  0  0  0  0  0  0  0  0  0  0
  -14.5279  -13.4418  -27.5820 C   0  0  0  0  0  0  0  0  0  0  0  0
  -14.4446  -14.8395  -27.6816 C   0  0  0  0  0  0  0  0  0  0  0  0
  -17.0552  -15.5717  -23.6789 O   0  0  0  0  0  0  0  0  0  0  0  0
  -14.7622  -23.4270  -26.1622 C   0  0  0  0  0  0  0  0  0  0  0  0
  -15.2685  -23.9725  -24.9946 O   0  0  0  0  0  0  0  0  0  0  0  0
  -15.3258  -11.5071  -26.4895 F   0  0  0  0  0  0  0  0  0  0  0  0
  -13.3013  -23.8764  -26.3350 C   0  0  0  0  0  0  0  0  0  0  0  0
  -15.6618  -23.9898  -27.2828 C   0  0  0  0  0  0  0  0  0  0  0  0
  -15.5020  -19.5031  -23.7762 H   0  0  0  0  0  0  0  0  0  0  0  0
  -14.4478  -21.5411  -28.1115 H   0  0  0  0  0  0  0  0  0  0  0  0
  -15.1687  -21.8919  -23.8556 H   0  0  0  0  0  0  0  0  0  0  0  0
  -16.5752  -17.9125  -24.1821 H   0  0  0  0  0  0  0  0  0  0  0  0
  -16.4447  -13.2029  -24.7512 H   0  0  0  0  0  0  0  0  0  0  0  0
  -14.0622  -12.8198  -28.3321 H   0  0  0  0  0  0  0  0  0  0  0  0
  -13.9009  -15.2937  -28.5015 H   0  0  0  0  0  0  0  0  0  0  0  0
  -12.8809  -23.4920  -27.2639 H   0  0  0  0  0  0  0  0  0  0  0  0
  -13.2181  -24.9664  -26.3599 H   0  0  0  0  0  0  0  0  0  0  0  0
  -12.6782  -23.5165  -25.5175 H   0  0  0  0  0  0  0  0  0  0  0  0
  -15.3402  -23.6515  -28.2829 H   0  0  0  0  0  0  0  0  0  0  0  0
  -15.6343  -25.0833  -27.3018 H   0  0  0  0  0  0  0  0  0  0  0  0
  -16.7114  -23.6922  -27.1461 H   0  0  0  0  0  0  0  0  0  0  0  0
  -16.2140  -23.8951  -25.0177 H   0  0  0  0  0  0  0  0  0  0  0  0
  1  2  2  0
  1  3  1  0
  1  4  1  0
  2  5  1  0
  3  6  2  0
  3 23  1  0
  4  8  1  0
  4 10  2  0
  5  7  2  0
  5 24  1  0
  6  7  1  0
  6 25  1  0
  7 18  1  0
  8  9  1  0
  8 26  1  0
  9 12  1  0
  9 17  2  0
 10 11  1  0
 11 12  2  0
 11 16  1  0
 12 13  1  0
 13 14  2  0
 13 27  1  0
 14 15  1  0
 14 20  1  0
 15 16  2  0
 15 28  1  0
 16 29  1  0
 18 19  1  0
 18 21  1  0
 18 22  1  0
 19 36  1  0
 21 30  1  0
 21 31  1  0
 21 32  1  0
 22 33  1  0
 22 34  1  0
 22 35  1  0
M  END
>  <s_m_entry_id>  (1) 
518

>  <Name>  (1) 
7

>  <IC50[nM]>  (1) 
700

>  <s_m_Source_Path>  (1) 
/projects/mai/users/kmzp800_harry/pmx_colab/docking_jobs/tnks2

>  <s_m_Source_File>  (1) 
tnks2_lig.sdf

>  <i_m_Source_File_Index>  (1) 
16

>  <s_m_job_name>  (1) 
glide-dock_SP_tnks_mcs_fallabck

>  <r_i_docking_score>  (1) 
-9.66024052887325

>  <r_i_glide_gscore>  (1) 
-9.66024052887325

>  <r_i_glide_emodel>  (1) 
-41.0888818237156

>  <index_string>  (1) 
21:0:0

$$$$
