20:0:0
     RDKit          3D

 40 42  0  0  1  0  0  0  0  0999 V2000
  -15.2025  -19.2615  -25.9367 C   0  0  0  0  0  0  0  0  0  0  0  0
  -15.4381  -20.0908  -24.8186 C   0  0  0  0  0  0  0  0  0  0  0  0
  -14.7818  -19.8481  -27.1437 C   0  0  0  0  0  0  0  0  0  0  0  0
  -15.2234  -21.4729  -24.9033 C   0  0  0  0  0  0  0  0  0  0  0  0
  -14.5304  -21.2161  -27.2114 C   0  0  0  0  0  0  0  0  0  0  0  0
  -14.8466  -17.0041  -26.7418 N   0  0  0  0  0  0  0  0  0  0  0  0
  -14.7434  -22.0517  -26.0955 C   0  0  0  0  0  0  0  0  0  0  0  0
  -14.4519  -23.5440  -26.1680 C   0  0  0  0  0  0  0  0  0  0  0  0
  -15.0260  -15.6149  -26.6659 C   0  0  0  0  0  0  0  0  0  0  0  0
  -15.7403  -15.0212  -25.5940 C   0  0  0  0  0  0  0  0  0  0  0  0
  -15.2275  -12.8381  -26.4898 C   0  0  0  0  0  0  0  0  0  0  0  0
  -14.5168  -13.4054  -27.5422 C   0  0  0  0  0  0  0  0  0  0  0  0
  -15.8550  -13.6164  -25.5037 C   0  0  0  0  0  0  0  0  0  0  0  0
  -14.4480  -14.7926  -27.6575 C   0  0  0  0  0  0  0  0  0  0  0  0
  -16.3660  -15.9454  -24.5978 C   0  0  0  0  0  0  0  0  0  0  0  0
  -16.1260  -17.2406  -24.8109 N   0  0  0  0  0  0  0  0  0  0  0  0
  -15.3678  -17.7819  -25.8414 C   0  0  0  0  0  0  0  0  0  0  0  0
  -17.0525  -15.5734  -23.6530 O   0  0  0  0  0  0  0  0  0  0  0  0
  -13.1912  -23.8666  -25.3262 C   0  0  0  0  0  0  0  0  0  0  0  0
  -14.1690  -23.9660  -27.5014 O   0  0  0  0  0  0  0  0  0  0  0  0
  -15.7095  -24.3236  -25.7094 C   0  0  0  0  0  0  0  0  0  0  0  0
  -13.8150  -15.3683  -28.8847 C   0  0  0  0  0  0  0  0  0  0  0  0
  -15.3289  -11.5147  -26.4821 F   0  0  0  0  0  0  0  0  0  0  0  0
  -15.7635  -19.6770  -23.8782 H   0  0  0  0  0  0  0  0  0  0  0  0
  -14.5813  -19.2438  -28.0158 H   0  0  0  0  0  0  0  0  0  0  0  0
  -15.3896  -22.0798  -24.0253 H   0  0  0  0  0  0  0  0  0  0  0  0
  -14.1325  -21.5728  -28.1411 H   0  0  0  0  0  0  0  0  0  0  0  0
  -14.0764  -12.7676  -28.2978 H   0  0  0  0  0  0  0  0  0  0  0  0
  -16.4086  -13.1453  -24.7038 H   0  0  0  0  0  0  0  0  0  0  0  0
  -16.5764  -17.8861  -24.1713 H   0  0  0  0  0  0  0  0  0  0  0  0
  -12.3680  -23.2076  -25.6003 H   0  0  0  0  0  0  0  0  0  0  0  0
  -12.8474  -24.8811  -25.5162 H   0  0  0  0  0  0  0  0  0  0  0  0
  -13.3753  -23.7479  -24.2571 H   0  0  0  0  0  0  0  0  0  0  0  0
  -14.9354  -23.8050  -28.0324 H   0  0  0  0  0  0  0  0  0  0  0  0
  -16.5610  -24.0019  -26.3176 H   0  0  0  0  0  0  0  0  0  0  0  0
  -15.6037  -25.3826  -25.9380 H   0  0  0  0  0  0  0  0  0  0  0  0
  -15.9441  -24.2060  -24.6506 H   0  0  0  0  0  0  0  0  0  0  0  0
  -13.8940  -14.6876  -29.7310 H   0  0  0  0  0  0  0  0  0  0  0  0
  -12.7779  -15.5712  -28.7004 H   0  0  0  0  0  0  0  0  0  0  0  0
  -14.2978  -16.3085  -29.1399 H   0  0  0  0  0  0  0  0  0  0  0  0
  1  2  2  0
  1  3  1  0
  1 17  1  0
  2  4  1  0
  2 24  1  0
  3  5  2  0
  3 25  1  0
  4  7  2  0
  4 26  1  0
  5  7  1  0
  5 27  1  0
  6  9  1  0
  6 17  2  0
  7  8  1  0
  8 19  1  0
  8 20  1  0
  8 21  1  0
  9 10  2  0
  9 14  1  0
 10 13  1  0
 10 15  1  0
 11 12  1  0
 11 13  2  0
 11 23  1  0
 12 14  2  0
 12 28  1  0
 13 29  1  0
 14 22  1  0
 15 16  1  0
 15 18  2  0
 16 17  1  0
 16 30  1  0
 19 31  1  0
 19 32  1  0
 19 33  1  0
 20 34  1  0
 21 35  1  0
 21 36  1  0
 21 37  1  0
 22 38  1  0
 22 39  1  0
 22 40  1  0
M  END
>  <s_m_entry_id>  (1) 
517

>  <Name>  (1) 
5m

>  <IC50[nM]>  (1) 
0.5

>  <s_m_Source_Path>  (1) 
/projects/mai/users/kmzp800_harry/pmx_colab/docking_jobs/tnks2

>  <s_m_Source_File>  (1) 
tnks2_lig.sdf

>  <i_m_Source_File_Index>  (1) 
19

>  <s_m_job_name>  (1) 
glide-dock_SP_tnks_mcs_fallabck

>  <r_i_docking_score>  (1) 
-9.74203890284687

>  <r_i_glide_gscore>  (1) 
-9.74203890284687

>  <r_i_glide_emodel>  (1) 
-33.0210718837317

>  <index_string>  (1) 
20:0:0

$$$$
