13:0:0
     RDKit          3D

 48 51  0  0  1  0  0  0  0  0999 V2000
  -14.3968  -14.8384  -27.7139 C   0  0  0  0  0  0  0  0  0  0  0  0
  -15.0110  -15.6280  -26.7139 C   0  0  0  0  0  0  0  0  0  0  0  0
  -14.4486  -13.4503  -27.6514 C   0  0  0  0  0  0  0  0  0  0  0  0
  -15.7278  -15.0093  -25.6609 C   0  0  0  0  0  0  0  0  0  0  0  0
  -14.8482  -17.0132  -26.7527 N   0  0  0  0  0  0  0  0  0  0  0  0
  -15.1772  -12.8317  -26.6438 C   0  0  0  0  0  0  0  0  0  0  0  0
  -15.8258  -13.5919  -25.6332 C   0  0  0  0  0  0  0  0  0  0  0  0
  -16.3453  -15.9275  -24.6261 C   0  0  0  0  0  0  0  0  0  0  0  0
  -16.1293  -17.2298  -24.8105 N   0  0  0  0  0  0  0  0  0  0  0  0
  -16.9933  -15.5526  -23.6631 O   0  0  0  0  0  0  0  0  0  0  0  0
  -15.3657  -17.7724  -25.8380 C   0  0  0  0  0  0  0  0  0  0  0  0
  -15.1771  -19.2321  -25.9252 C   0  0  0  0  0  0  0  0  0  0  0  0
  -14.7441  -19.7976  -27.1408 C   0  0  0  0  0  0  0  0  0  0  0  0
  -14.5415  -21.1759  -27.2472 C   0  0  0  0  0  0  0  0  0  0  0  0
  -14.7637  -21.9947  -26.1393 C   0  0  0  0  0  0  0  0  0  0  0  0
  -15.2263  -21.4476  -24.9277 C   0  0  0  0  0  0  0  0  0  0  0  0
  -15.4405  -20.0671  -24.8223 C   0  0  0  0  0  0  0  0  0  0  0  0
  -15.2482  -11.4928  -26.7385 F   0  0  0  0  0  0  0  0  0  0  0  0
  -14.3739  -23.3402  -26.1728 N   0  0  0  0  0  0  0  0  0  0  0  0
  -13.3609  -23.7853  -25.2213 C   0  0  0  0  0  0  0  0  0  0  0  0
  -12.2739  -24.6204  -25.9227 C   0  0  0  0  0  0  0  0  0  0  0  0
  -12.8493  -25.6510  -26.8198 N   0  0  0  0  0  0  0  0  0  0  0  0
  -13.7618  -25.0576  -27.8313 C   0  0  0  0  0  0  0  0  0  0  0  0
  -14.9027  -24.2659  -27.1640 C   0  0  0  0  0  0  0  0  0  0  0  0
  -11.8095  -26.5124  -27.4245 C   0  0  0  0  0  0  0  0  0  0  0  0
  -13.9715  -12.8415  -28.4063 H   0  0  0  0  0  0  0  0  0  0  0  0
  -16.3869  -13.0959  -24.8535 H   0  0  0  0  0  0  0  0  0  0  0  0
  -16.5771  -17.8596  -24.1568 H   0  0  0  0  0  0  0  0  0  0  0  0
  -14.5333  -19.1845  -28.0059 H   0  0  0  0  0  0  0  0  0  0  0  0
  -14.1460  -21.5726  -28.1639 H   0  0  0  0  0  0  0  0  0  0  0  0
  -15.3856  -22.0784  -24.0654 H   0  0  0  0  0  0  0  0  0  0  0  0
  -15.7775  -19.6649  -23.8783 H   0  0  0  0  0  0  0  0  0  0  0  0
  -12.8898  -22.9296  -24.7338 H   0  0  0  0  0  0  0  0  0  0  0  0
  -13.8358  -24.3625  -24.4304 H   0  0  0  0  0  0  0  0  0  0  0  0
  -11.6308  -25.0848  -25.1735 H   0  0  0  0  0  0  0  0  0  0  0  0
  -11.6488  -23.9699  -26.5328 H   0  0  0  0  0  0  0  0  0  0  0  0
  -14.1803  -25.8395  -28.4658 H   0  0  0  0  0  0  0  0  0  0  0  0
  -13.1838  -24.3970  -28.4784 H   0  0  0  0  0  0  0  0  0  0  0  0
  -15.5829  -24.9505  -26.6565 H   0  0  0  0  0  0  0  0  0  0  0  0
  -15.4955  -23.7423  -27.9146 H   0  0  0  0  0  0  0  0  0  0  0  0
  -11.1464  -25.9352  -28.0710 H   0  0  0  0  0  0  0  0  0  0  0  0
  -11.2025  -26.9844  -26.6510 H   0  0  0  0  0  0  0  0  0  0  0  0
  -12.2626  -27.3054  -28.0205 H   0  0  0  0  0  0  0  0  0  0  0  0
  -13.4177  -26.2509  -26.2409 H   0  0  0  0  0  0  0  0  0  0  0  0
  -13.6483  -15.4241  -28.8767 C   0  0  0  0  0  0  0  0  0  0  0  0
  -14.0880  -16.3759  -29.1380 H   0  0  0  0  0  0  0  0  0  0  0  0
  -13.7219  -14.7743  -29.7500 H   0  0  0  0  0  0  0  0  0  0  0  0
  -12.5940  -15.5719  -28.6683 H   0  0  0  0  0  0  0  0  0  0  0  0
  1  2  2  0
  1  3  1  0
  1 45  1  0
  2  4  1  0
  2  5  1  0
  3  6  2  0
  3 26  1  0
  4  7  2  0
  4  8  1  0
  5 11  2  0
  6  7  1  0
  6 18  1  0
  7 27  1  0
  8  9  1  0
  8 10  2  0
  9 11  1  0
  9 28  1  0
 11 12  1  0
 12 13  2  0
 12 17  1  0
 13 14  1  0
 13 29  1  0
 14 15  2  0
 14 30  1  0
 15 16  1  0
 15 19  1  0
 16 17  2  0
 16 31  1  0
 17 32  1  0
 19 20  1  0
 19 24  1  0
 20 21  1  0
 20 33  1  0
 20 34  1  0
 21 22  1  0
 21 35  1  0
 21 36  1  0
 22 23  1  0
 22 25  1  0
 22 44  1  0
 23 24  1  0
 23 37  1  0
 23 38  1  0
 24 39  1  0
 24 40  1  0
 25 41  1  0
 25 42  1  0
 25 43  1  0
 45 46  1  0
 45 47  1  0
 45 48  1  0
M  CHG  1  22   1
M  END
>  <s_m_entry_id>  (1) 
455

>  <Name>  (1) 
8b

>  <IC50[nM]>  (1) 
1.8

>  <s_m_Source_Path>  (1) 
/projects/mai/users/kmzp800_harry/pmx_colab/docking_jobs/tnks2

>  <s_m_Source_File>  (1) 
tnks2_lig.sdf

>  <i_m_Source_File_Index>  (1) 
14

>  <s_m_job_name>  (1) 
glide-dock_SP_tnks2_core_const

>  <r_i_docking_score>  (1) 
-10.5757412086971

>  <r_i_glide_gscore>  (1) 
-10.5757412086971

>  <r_i_glide_emodel>  (1) 
-38.7991401362397

>  <index_string>  (1) 
13:0:0

$$$$
