16:0:0
     RDKit          3D

 44 46  0  0  1  0  0  0  0  0999 V2000
   33.4240   35.6960   19.7780 C   0  0  0  0  0  0  0  0  0  0  0  0
   33.3470   37.0200   20.2070 C   0  0  0  0  0  0  0  0  0  0  0  0
   33.0320   37.3030   21.5300 C   0  0  0  0  0  0  0  0  0  0  0  0
   32.9360   38.6150   21.9850 C   0  0  0  0  0  0  0  0  0  0  0  0
   32.6220   38.8580   23.2830 N   0  0  0  0  0  0  0  0  0  0  0  0
   32.3970   37.8360   24.1550 C   0  0  0  0  0  0  0  0  0  0  0  0
   32.0680   38.1030   25.5200 N   0  0  0  0  0  0  0  0  0  0  0  0
   32.4890   36.5480   23.7280 N   0  0  0  0  0  0  0  0  0  0  0  0
   32.8010   36.2520   22.4350 C   0  0  0  0  0  0  0  0  0  0  0  0
   32.8990   34.9530   22.0140 N   0  0  0  0  0  0  0  0  0  0  0  0
   32.6730   33.8660   22.9640 C   0  0  0  0  0  0  0  0  0  0  0  0
   33.2180   34.6580   20.7140 C   0  0  0  0  0  0  0  0  0  0  0  0
   33.3500   33.4560   20.3540 O   0  0  0  0  0  0  0  0  0  0  0  0
   33.7510   35.4490   18.4370 O   0  0  0  0  0  0  0  0  0  0  0  0
   37.4020   35.9540   18.2260 C   0  0  0  0  0  0  0  0  0  0  0  0
   36.1100   35.8080   18.7350 C   0  0  0  0  0  0  0  0  0  0  0  0
   35.0290   35.5790   17.8770 C   0  0  0  0  0  0  0  0  0  0  0  0
   35.2530   35.5270   16.4850 C   0  0  0  0  0  0  0  0  0  0  0  0
   34.2240   35.3760   15.6140 F   0  0  0  0  0  0  0  0  0  0  0  0
   36.5480   35.6750   15.9800 C   0  0  0  0  0  0  0  0  0  0  0  0
   37.6230   35.8810   16.8480 C   0  0  0  0  0  0  0  0  0  0  0  0
   38.8760   36.0210   16.3540 F   0  0  0  0  0  0  0  0  0  0  0  0
   31.9210   39.4520   26.0450 C   0  0  0  0  0  0  0  0  0  0  0  0
   32.4870   39.5280   27.4510 C   0  0  0  0  0  0  0  0  0  0  0  0
   31.7720   38.2570   28.4700 S   0  0  0  0  0  0  0  0  0  0  0  0
   32.5060   36.9630   28.2590 O   0  0  0  0  0  0  0  0  0  0  0  0
   30.3280   38.0760   28.0950 O   0  0  0  0  0  0  0  0  0  0  0  0
   31.8760   38.7250   30.1820 C   0  0  0  0  0  0  0  0  0  0  0  0
   33.5355   37.8401   19.4985 H   0  0  0  0  0  0  0  0  0  0  0  0
   33.1141   39.4526   21.2946 H   0  0  0  0  0  0  0  0  0  0  0  0
   31.9291   37.3071   26.1588 H   0  0  0  0  0  0  0  0  0  0  0  0
   32.7535   34.2534   23.9904 H   0  0  0  0  0  0  0  0  0  0  0  0
   31.6683   33.4460   22.8084 H   0  0  0  0  0  0  0  0  0  0  0  0
   33.4270   33.0803   22.8084 H   0  0  0  0  0  0  0  0  0  0  0  0
   38.2461   36.1265   18.9099 H   0  0  0  0  0  0  0  0  0  0  0  0
   35.9407   35.8736   19.8199 H   0  0  0  0  0  0  0  0  0  0  0  0
   36.7213   35.6291   14.8947 H   0  0  0  0  0  0  0  0  0  0  0  0
   32.4624   40.1561   25.3961 H   0  0  0  0  0  0  0  0  0  0  0  0
   30.8530   39.7139   26.0718 H   0  0  0  0  0  0  0  0  0  0  0  0
   33.5778   39.3915   27.4116 H   0  0  0  0  0  0  0  0  0  0  0  0
   32.2472   40.5112   27.8820 H   0  0  0  0  0  0  0  0  0  0  0  0
   31.6808   37.8466   30.8147 H   0  0  0  0  0  0  0  0  0  0  0  0
   32.8825   39.1141   30.3953 H   0  0  0  0  0  0  0  0  0  0  0  0
   31.1290   39.5038   30.3953 H   0  0  0  0  0  0  0  0  0  0  0  0
  1  2  2  0
  1 12  1  0
  1 14  1  0
  2  3  1  0
  2 29  1  0
  3  4  2  0
  3  9  1  0
  4  5  1  0
  4 30  1  0
  5  6  2  0
  6  7  1  0
  6  8  1  0
  7 23  1  0
  7 31  1  0
  8  9  2  0
  9 10  1  0
 10 11  1  0
 10 12  1  0
 11 32  1  0
 11 33  1  0
 11 34  1  0
 12 13  2  0
 14 17  1  0
 15 16  2  0
 15 21  1  0
 15 35  1  0
 16 17  1  0
 16 36  1  0
 17 18  2  0
 18 19  1  0
 18 20  1  0
 20 21  2  0
 20 37  1  0
 21 22  1  0
 23 24  1  0
 23 38  1  0
 23 39  1  0
 24 25  1  0
 24 40  1  0
 24 41  1  0
 25 28  1  0
 25 26  2  0
 25 27  2  0
 28 42  1  0
 28 43  1  0
 28 44  1  0
M  END
>  <s_m_entry_id>  (1) 
1371

>  <MODEL>  (1) 
1

>  <REMARK>  (1) 
 VINA RESULT:    -8.086      0.000      0.000
 INTER + INTRA:         -11.394
 INTER:                 -10.449
 INTRA:                  -0.945
 UNBOUND:                -0.945
  Name = /scratch/kmzp800/tmpfm7b0vmg/tmpomogryo9.pdb
  7 active torsions:
  status: ('A' for Active; 'I' for Inactive)
    1  A    between atoms: C3_3  and  O1_4
    2  A    between atoms: O1_4  and  C4_5
    3  A    between atoms: N2_11  and  C9_12
    4  A    between atoms: C9_12  and  C10_13
    5  A    between atoms: C10_13  and  S1_14
    6  A    between atoms: S1_14  and  C11_17
    7  A    between atoms: N4_20  and  C13_21
                            x       y       z     vdW  Elec       q    Type
                         _______ _______ _______ _____ _____    ______ ____

>  <TORSDO>  (1) 
F 5

>  <grid_id>  (1) 
p38-prepared

>  <grid_path>  (1) 
/projects/mai/users/kmzp800_harry/pmx_colab/docking_jobs/p38/vina_docking/input_files/p38_vina.pdbqt

>  <grid_filename>  (1) 
p38_vina.pdbqt

>  <docking_score>  (1) 
-8.086

>  <compound_name>  (1) 
lig_p38a_2bb

>  <index_string>  (1) 
16:0:0

>  <s_m_Source_Path>  (1) 
/projects/mai/users/kmzp800_harry/pmx_colab/docking_jobs/p38

>  <s_m_Source_File>  (1) 
p38_confs_vina_naive.sdf

>  <i_m_Source_File_Index>  (1) 
18

$$$$
