24:0:0
     RDKit          3D

 64 68  0  0  1  0  0  0  0  0999 V2000
   -8.7068    6.3359   12.1295 C   0  0  0  0  0  0  0  0  0  0  0  0
   -7.3590    5.9119   12.0237 O   0  0  0  0  0  0  0  0  0  0  0  0
   -6.4394    6.3932   12.8809 C   0  0  0  0  0  0  0  0  0  0  0  0
   -6.6943    7.2057   13.7715 O   0  0  0  0  0  0  0  0  0  0  0  0
   -5.0821    5.8219   12.6558 C   0  0  0  0  0  0  0  0  0  0  0  0
   -4.7707    5.0697   11.4996 C   0  0  0  0  0  0  0  0  0  0  0  0
   -3.4718    4.5655   11.3045 C   0  0  0  0  0  0  0  0  0  0  0  0
   -2.4486    4.8266   12.2470 C   0  0  0  0  0  0  0  0  0  0  0  0
   -1.1118    4.3584   12.1027 N   0  0  0  0  0  0  0  0  0  0  0  0
   -0.4698    4.0305   10.9671 C   0  0  0  0  0  0  0  0  0  0  0  0
   -0.9527    4.1156    9.8401 O   0  0  0  0  0  0  0  0  0  0  0  0
    0.9601    3.6058   11.1262 C   0  0  0  0  0  0  0  0  0  0  0  0
    1.9042    4.0370   10.1719 C   0  0  0  0  0  0  0  0  0  0  0  0
    3.2346    3.6025   10.2495 C   0  0  0  0  0  0  0  0  0  0  0  0
    3.6186    2.7120   11.2646 C   0  0  0  0  0  0  0  0  0  0  0  0
    2.6916    2.2316   12.2238 C   0  0  0  0  0  0  0  0  0  0  0  0
    1.3617    2.7176   12.1568 C   0  0  0  0  0  0  0  0  0  0  0  0
    3.1325    1.2532   13.2504 C   0  0  0  0  0  0  0  0  0  0  0  0
    4.4342    1.2785   13.6970 C   0  0  0  0  0  0  0  0  0  0  0  0
    4.7613    0.4641   14.7260 N   0  0  0  0  0  0  0  0  0  0  0  0
    5.9051    0.3656   15.4879 C   0  0  0  0  0  0  0  0  0  0  0  0
    5.5899   -0.4968   16.5034 C   0  0  0  0  0  0  0  0  0  0  0  0
    4.3422   -1.0579   16.3383 N   0  0  0  0  0  0  0  0  0  0  0  0
    3.8203   -0.4224   15.2968 C   0  0  0  0  0  0  0  0  0  0  0  0
    2.5194   -0.4356   14.7290 C   0  0  0  0  0  0  0  0  0  0  0  0
    1.5584   -1.3048   15.2756 N   0  0  0  0  0  0  0  0  0  0  0  0
    0.1973   -1.5039   14.9792 C   0  0  0  0  0  0  0  0  0  0  0  0
   -0.4123   -2.6515   15.5229 C   0  0  0  0  0  0  0  0  0  0  0  0
   -1.7805   -2.9064   15.3163 C   0  0  0  0  0  0  0  0  0  0  0  0
   -2.5749   -2.0103   14.5586 C   0  0  0  0  0  0  0  0  0  0  0  0
   -3.9256   -2.1881   14.3290 O   0  0  0  0  0  0  0  0  0  0  0  0
   -4.5393   -3.3749   14.8196 C   0  0  0  0  0  0  0  0  0  0  0  0
   -1.9757   -0.8595   14.0003 C   0  0  0  0  0  0  0  0  0  0  0  0
   -2.7932   -0.0138   13.2765 O   0  0  0  0  0  0  0  0  0  0  0  0
   -2.1987    1.0613   12.5610 C   0  0  0  0  0  0  0  0  0  0  0  0
   -0.5978   -0.6146   14.2176 C   0  0  0  0  0  0  0  0  0  0  0  0
    2.2001    0.3646   13.7570 N   0  0  0  0  0  0  0  0  0  0  0  0
   -2.7646    5.5569   13.4099 C   0  0  0  0  0  0  0  0  0  0  0  0
   -4.0734    6.0321   13.6203 C   0  0  0  0  0  0  0  0  0  0  0  0
   -9.3113    5.8387   11.3710 H   0  0  0  0  0  0  0  0  0  0  0  0
   -8.7887    7.4143   11.9783 H   0  0  0  0  0  0  0  0  0  0  0  0
   -9.1177    6.0879   13.1093 H   0  0  0  0  0  0  0  0  0  0  0  0
   -5.5163    4.8715   10.7435 H   0  0  0  0  0  0  0  0  0  0  0  0
   -3.2837    3.9830   10.4156 H   0  0  0  0  0  0  0  0  0  0  0  0
   -0.5445    4.3689   12.9355 H   0  0  0  0  0  0  0  0  0  0  0  0
    1.6076    4.7016    9.3710 H   0  0  0  0  0  0  0  0  0  0  0  0
    3.9576    3.9313    9.5167 H   0  0  0  0  0  0  0  0  0  0  0  0
    4.6397    2.3650   11.2678 H   0  0  0  0  0  0  0  0  0  0  0  0
    0.6367    2.3644   12.8751 H   0  0  0  0  0  0  0  0  0  0  0  0
    5.1959    1.9728   13.3598 H   0  0  0  0  0  0  0  0  0  0  0  0
    6.7651    0.9838   15.2800 H   0  0  0  0  0  0  0  0  0  0  0  0
    6.1113   -0.7452   17.4034 H   0  0  0  0  0  0  0  0  0  0  0  0
    1.9407   -1.9198   15.9821 H   0  0  0  0  0  0  0  0  0  0  0  0
    0.1653   -3.3429   16.1222 H   0  0  0  0  0  0  0  0  0  0  0  0
   -2.1955   -3.7972   15.7643 H   0  0  0  0  0  0  0  0  0  0  0  0
   -5.5903   -3.3837   14.5315 H   0  0  0  0  0  0  0  0  0  0  0  0
   -4.0754   -4.2654   14.3891 H   0  0  0  0  0  0  0  0  0  0  0  0
   -4.4964   -3.4274   15.9091 H   0  0  0  0  0  0  0  0  0  0  0  0
   -2.9498    1.5386   11.9333 H   0  0  0  0  0  0  0  0  0  0  0  0
   -1.8106    1.8147   13.2468 H   0  0  0  0  0  0  0  0  0  0  0  0
   -1.3985    0.7180   11.9044 H   0  0  0  0  0  0  0  0  0  0  0  0
   -0.1722    0.2893   13.8279 H   0  0  0  0  0  0  0  0  0  0  0  0
   -2.0048    5.7438   14.1562 H   0  0  0  0  0  0  0  0  0  0  0  0
   -4.2930    6.5774   14.5279 H   0  0  0  0  0  0  0  0  0  0  0  0
  1  2  1  0
  1 40  1  0
  1 41  1  0
  1 42  1  0
  2  3  1  0
  3  4  2  0
  3  5  1  0
  5  6  2  0
  5 39  1  0
  6  7  1  0
  6 43  1  0
  7  8  2  0
  7 44  1  0
  8  9  1  0
  8 38  1  0
  9 10  1  0
  9 45  1  0
 10 11  2  0
 10 12  1  0
 12 13  2  0
 12 17  1  0
 13 14  1  0
 13 46  1  0
 14 15  2  0
 14 47  1  0
 15 16  1  0
 15 48  1  0
 16 17  2  0
 16 18  1  0
 17 49  1  0
 18 19  2  0
 18 37  1  0
 19 20  1  0
 19 50  1  0
 20 21  1  0
 20 24  1  0
 21 22  2  0
 21 51  1  0
 22 23  1  0
 22 52  1  0
 23 24  2  0
 24 25  1  0
 25 26  1  0
 25 37  2  0
 26 27  1  0
 26 53  1  0
 27 28  2  0
 27 36  1  0
 28 29  1  0
 28 54  1  0
 29 30  2  0
 29 55  1  0
 30 31  1  0
 30 33  1  0
 31 32  1  0
 32 56  1  0
 32 57  1  0
 32 58  1  0
 33 34  1  0
 33 36  2  0
 34 35  1  0
 35 59  1  0
 35 60  1  0
 35 61  1  0
 36 62  1  0
 38 39  2  0
 38 63  1  0
 39 64  1  0
M  END
>  <s_m_entry_id>  (1) 
1012

>  <IC50[nM]>  (1) 
15.2

>  <s_m_Source_Path>  (1) 
/projects/mai/users/kmzp800_harry/pmx_colab/docking_jobs/syk

>  <s_m_Source_File>  (1) 
tnks2_lig.sdf

>  <i_m_Source_File_Index>  (1) 
25

>  <s_m_job_name>  (1) 
glide-dock_SP_tnks2_core_const

>  <r_i_docking_score>  (1) 
-7.88368097724046

>  <r_i_glide_gscore>  (1) 
-7.88368097724046

>  <r_i_glide_emodel>  (1) 
-63.6903327408523

>  <index_string>  (1) 
24:0:0

$$$$
