15:0:0
     RDKit          3D

 46 49  0  0  1  0  0  0  0  0999 V2000
   38.9521   36.0481   16.2879 F   0  0  0  0  0  0  0  0  0  0  0  0
   37.8265   35.9494   17.0153 C   0  0  0  0  0  0  0  0  0  0  0  0
   36.6132   35.6411   16.3800 C   0  0  0  0  0  0  0  0  0  0  0  0
   35.4360   35.5447   17.1412 C   0  0  0  0  0  0  0  0  0  0  0  0
   34.2897   35.1492   16.5369 F   0  0  0  0  0  0  0  0  0  0  0  0
   35.4585   35.7697   18.5329 C   0  0  0  0  0  0  0  0  0  0  0  0
   36.6917   36.0732   19.1642 C   0  0  0  0  0  0  0  0  0  0  0  0
   37.8704   36.1665   18.4044 C   0  0  0  0  0  0  0  0  0  0  0  0
   34.2764   35.6278   19.2223 O   0  0  0  0  0  0  0  0  0  0  0  0
   34.1861   36.1593   20.4779 C   0  0  0  0  0  0  0  0  0  0  0  0
   34.1970   37.4960   20.6469 C   0  0  0  0  0  0  0  0  0  0  0  0
   34.1270   35.2277   21.6092 C   0  0  0  0  0  0  0  0  0  0  0  0
   34.1520   34.0071   21.4321 O   0  0  0  0  0  0  0  0  0  0  0  0
   34.0786   35.7872   22.8541 N   0  0  0  0  0  0  0  0  0  0  0  0
   34.0287   34.9204   24.0428 C   0  0  0  0  0  0  0  0  0  0  0  0
   34.0967   37.2044   23.0832 C   0  0  0  0  0  0  0  0  0  0  0  0
   34.1631   38.0749   21.9774 C   0  0  0  0  0  0  0  0  0  0  0  0
   34.0508   37.7249   24.3258 N   0  0  0  0  0  0  0  0  0  0  0  0
   34.0590   39.0486   24.4685 C   0  0  0  0  0  0  0  0  0  0  0  0
   34.1522   39.9482   23.4891 N   0  0  0  0  0  0  0  0  0  0  0  0
   34.2022   39.4593   22.2324 C   0  0  0  0  0  0  0  0  0  0  0  0
   33.9177   39.5492   25.7461 N   0  0  0  0  0  0  0  0  0  0  0  0
   33.4408   38.7515   26.8722 C   0  0  0  0  0  0  0  0  0  0  0  0
   34.6214   38.2160   27.6988 C   0  0  0  0  0  0  0  0  0  0  0  0
   32.4198   39.5379   27.7139 C   0  0  0  0  0  0  0  0  0  0  0  0
   31.6078   38.6477   28.5247 N   0  0  0  0  0  0  0  0  0  0  0  0
   30.5758   37.9493   28.0138 N   0  0  0  0  0  0  0  0  0  0  0  0
   30.1953   37.2868   29.0928 C   0  0  0  0  0  0  0  0  0  0  0  0
   30.9526   37.5496   30.1980 N   0  0  0  0  0  0  0  0  0  0  0  0
   31.8408   38.4178   29.8318 N   0  0  0  0  0  0  0  0  0  0  0  0
   32.9032   37.8909   26.4730 H   0  0  0  0  0  0  0  0  0  0  0  0
   36.5889   35.4609   15.3164 H   0  0  0  0  0  0  0  0  0  0  0  0
   36.7576   36.2296   20.2311 H   0  0  0  0  0  0  0  0  0  0  0  0
   38.8116   36.3944   18.8829 H   0  0  0  0  0  0  0  0  0  0  0  0
   34.2573   38.1637   19.8000 H   0  0  0  0  0  0  0  0  0  0  0  0
   34.0177   33.8495   23.8347 H   0  0  0  0  0  0  0  0  0  0  0  0
   34.8930   35.1108   24.6813 H   0  0  0  0  0  0  0  0  0  0  0  0
   33.1313   35.1374   24.6243 H   0  0  0  0  0  0  0  0  0  0  0  0
   34.2655   40.1789   21.4293 H   0  0  0  0  0  0  0  0  0  0  0  0
   33.8744   40.5628   25.8264 H   0  0  0  0  0  0  0  0  0  0  0  0
   34.2796   37.5691   28.5069 H   0  0  0  0  0  0  0  0  0  0  0  0
   35.2980   37.6263   27.0789 H   0  0  0  0  0  0  0  0  0  0  0  0
   35.1984   39.0273   28.1419 H   0  0  0  0  0  0  0  0  0  0  0  0
   31.7458   40.0947   27.0621 H   0  0  0  0  0  0  0  0  0  0  0  0
   32.9091   40.2722   28.3556 H   0  0  0  0  0  0  0  0  0  0  0  0
   29.3593   36.6022   29.0894 H   0  0  0  0  0  0  0  0  0  0  0  0
  1  2  1  0
  2  8  2  0
  2  3  1  0
  3  4  2  0
  3 32  1  0
  4  5  1  0
  4  6  1  0
  6  7  2  0
  6  9  1  0
  7  8  1  0
  7 33  1  0
  8 34  1  0
  9 10  1  0
 10 11  2  0
 10 12  1  0
 11 17  1  0
 11 35  1  0
 12 13  2  0
 12 14  1  0
 14 15  1  0
 14 16  1  0
 15 36  1  0
 15 37  1  0
 15 38  1  0
 16 17  2  0
 16 18  1  0
 17 21  1  0
 18 19  2  0
 19 20  1  0
 19 22  1  0
 20 21  2  0
 21 39  1  0
 22 23  1  0
 22 40  1  0
 23 31  1  0
 23 24  1  0
 23 25  1  0
 24 41  1  0
 24 42  1  0
 24 43  1  0
 25 26  1  0
 25 44  1  0
 25 45  1  0
 26 30  1  0
 26 27  1  0
 27 28  2  0
 28 29  1  0
 28 46  1  0
 29 30  2  0
M  END
>  <s_m_entry_id>  (1) 
732

>  <i_f3d_flags>  (1) 
0

>  <r_lp_tautomer_probability>  (1) 
1

>  <r_epik_Ionization_Penalty>  (1) 
  0.0000

>  <r_epik_State_Penalty>  (1) 
  0.0000

>  <i_epik_Tot_Q>  (1) 
0

>  <s_m_job_name>  (1) 
glide-dock_SP_p38_all_ligs_no_cons_10_poses

>  <r_i_docking_score>  (1) 
-7.4757481535722

>  <r_i_glide_gscore>  (1) 
-7.4757481535722

>  <r_i_glide_emodel>  (1) 
-65.8658888238151

>  <index_string>  (1) 
15:0:0

$$$$
