4:0:0
     RDKit          3D

 37 39  0  0  1  0  0  0  0  0999 V2000
  -14.3873  -15.0256  -27.7771 C   0  0  0  0  0  0  0  0  0  0  0  0
  -14.9635  -15.7851  -26.7386 C   0  0  0  0  0  0  0  0  0  0  0  0
  -14.4482  -13.6209  -27.7521 C   0  0  0  0  0  0  0  0  0  0  0  0
  -15.6511  -15.1366  -25.6883 C   0  0  0  0  0  0  0  0  0  0  0  0
  -14.7975  -17.1751  -26.7490 N   0  0  0  0  0  0  0  0  0  0  0  0
  -15.1468  -12.9745  -26.7169 C   0  0  0  0  0  0  0  0  0  0  0  0
  -15.7620  -13.7261  -25.6964 C   0  0  0  0  0  0  0  0  0  0  0  0
  -16.2194  -16.0067  -24.5998 C   0  0  0  0  0  0  0  0  0  0  0  0
  -15.9823  -17.3199  -24.7312 N   0  0  0  0  0  0  0  0  0  0  0  0
  -16.8482  -15.5727  -23.6428 O   0  0  0  0  0  0  0  0  0  0  0  0
  -15.2482  -17.9017  -25.7695 C   0  0  0  0  0  0  0  0  0  0  0  0
  -14.9942  -19.3631  -25.7721 C   0  0  0  0  0  0  0  0  0  0  0  0
  -14.8482  -20.0497  -26.9937 C   0  0  0  0  0  0  0  0  0  0  0  0
  -14.5232  -21.4124  -27.0001 C   0  0  0  0  0  0  0  0  0  0  0  0
  -14.3029  -22.1024  -25.7965 C   0  0  0  0  0  0  0  0  0  0  0  0
  -14.4875  -21.4234  -24.5707 C   0  0  0  0  0  0  0  0  0  0  0  0
  -14.8443  -20.0638  -24.5583 C   0  0  0  0  0  0  0  0  0  0  0  0
  -13.9928  -23.5889  -25.8221 C   0  0  0  0  0  0  0  0  0  0  0  0
  -13.2779  -23.9727  -24.6631 O   0  0  0  0  0  0  0  0  0  0  0  0
  -13.0626  -24.0533  -26.9577 C   0  0  0  0  0  0  0  0  0  0  0  0
  -15.3483  -24.3151  -25.9386 C   0  0  0  0  0  0  0  0  0  0  0  0
  -16.4478  -13.0726  -24.7366 F   0  0  0  0  0  0  0  0  0  0  0  0
  -13.8580  -15.5220  -28.5775 H   0  0  0  0  0  0  0  0  0  0  0  0
  -13.9800  -13.0382  -28.5327 H   0  0  0  0  0  0  0  0  0  0  0  0
  -15.2152  -11.8963  -26.7083 H   0  0  0  0  0  0  0  0  0  0  0  0
  -16.3880  -17.9271  -24.0311 H   0  0  0  0  0  0  0  0  0  0  0  0
  -14.9346  -19.5344  -27.9384 H   0  0  0  0  0  0  0  0  0  0  0  0
  -14.4326  -21.9207  -27.9386 H   0  0  0  0  0  0  0  0  0  0  0  0
  -14.3687  -21.9414  -23.6299 H   0  0  0  0  0  0  0  0  0  0  0  0
  -14.9795  -19.5675  -23.6105 H   0  0  0  0  0  0  0  0  0  0  0  0
  -12.4120  -23.5927  -24.7058 H   0  0  0  0  0  0  0  0  0  0  0  0
  -13.4951  -23.8878  -27.9386 H   0  0  0  0  0  0  0  0  0  0  0  0
  -12.8795  -25.1267  -26.8877 H   0  0  0  0  0  0  0  0  0  0  0  0
  -12.0873  -23.5727  -26.9184 H   0  0  0  0  0  0  0  0  0  0  0  0
  -15.9186  -23.9494  -26.7932 H   0  0  0  0  0  0  0  0  0  0  0  0
  -15.2482  -25.3885  -26.0805 H   0  0  0  0  0  0  0  0  0  0  0  0
  -15.9565  -24.1548  -25.0481 H   0  0  0  0  0  0  0  0  0  0  0  0
  1  2  2  0
  1  3  1  0
  1 23  1  0
  2  4  1  0
  2  5  1  0
  3  6  2  0
  3 24  1  0
  4  7  2  0
  4  8  1  0
  5 11  2  0
  6  7  1  0
  6 25  1  0
  7 22  1  0
  8  9  1  0
  8 10  2  0
  9 11  1  0
  9 26  1  0
 11 12  1  0
 12 13  2  0
 12 17  1  0
 13 14  1  0
 13 27  1  0
 14 15  2  0
 14 28  1  0
 15 16  1  0
 15 18  1  0
 16 17  2  0
 16 29  1  0
 17 30  1  0
 18 19  1  0
 18 20  1  0
 18 21  1  0
 19 31  1  0
 20 32  1  0
 20 33  1  0
 20 34  1  0
 21 35  1  0
 21 36  1  0
 21 37  1  0
M  END
>  <s_m_entry_id>  (1) 
419

>  <Name>  (1) 
5b

>  <IC50[nM]>  (1) 
21

>  <s_m_Source_Path>  (1) 
/projects/mai/users/kmzp800_harry/pmx_colab/docking_jobs/tnks2

>  <s_m_Source_File>  (1) 
tnks2_lig.sdf

>  <i_m_Source_File_Index>  (1) 
5

>  <s_m_job_name>  (1) 
glide-dock_SP_tnks2_no_cons

>  <r_i_docking_score>  (1) 
-10.4739071186072

>  <r_i_glide_gscore>  (1) 
-10.4739071186072

>  <r_i_glide_emodel>  (1) 
-62.857809628054

>  <index_string>  (1) 
4:0:0

$$$$
