24:0:0
     RDKit          3D

 64 68  0  0  1  0  0  0  0  0999 V2000
    5.8770   -0.5760   16.5010 C   0  0  0  0  0  0  0  0  0  0  0  0
    4.5750   -0.9550   16.4600 N   0  0  0  0  0  0  0  0  0  0  0  0
    4.0770   -0.2640   15.4210 C   0  0  0  0  0  0  0  0  0  0  0  0
    2.7690   -0.2990   14.9450 C   0  0  0  0  0  0  0  0  0  0  0  0
    1.7780   -1.1160   15.5850 N   0  0  0  0  0  0  0  0  0  0  0  0
    2.4620    0.4930   13.8750 N   0  0  0  0  0  0  0  0  0  0  0  0
    3.3940    1.2910   13.2650 C   0  0  0  0  0  0  0  0  0  0  0  0
    4.7140    1.2980   13.7580 C   0  0  0  0  0  0  0  0  0  0  0  0
    4.9890    0.5100   14.8250 N   0  0  0  0  0  0  0  0  0  0  0  0
    6.1420    0.3390   15.4830 C   0  0  0  0  0  0  0  0  0  0  0  0
    0.4780   -1.4270   15.0690 C   0  0  0  0  0  0  0  0  0  0  0  0
   -0.1300   -2.6260   15.4460 C   0  0  0  0  0  0  0  0  0  0  0  0
   -1.3870   -2.9680   14.9420 C   0  0  0  0  0  0  0  0  0  0  0  0
   -2.0500   -2.1170   14.0440 C   0  0  0  0  0  0  0  0  0  0  0  0
   -1.4400   -0.9180   13.6480 C   0  0  0  0  0  0  0  0  0  0  0  0
   -0.1780   -0.5810   14.1650 C   0  0  0  0  0  0  0  0  0  0  0  0
   -3.3100   -2.4440   13.5310 O   0  0  0  0  0  0  0  0  0  0  0  0
   -4.1690   -3.3940   14.1470 C   0  0  0  0  0  0  0  0  0  0  0  0
   -2.0980   -0.0800   12.7400 O   0  0  0  0  0  0  0  0  0  0  0  0
   -1.4150    0.6350   11.7200 C   0  0  0  0  0  0  0  0  0  0  0  0
    3.0050    2.1340   12.1150 C   0  0  0  0  0  0  0  0  0  0  0  0
    3.9210    2.4290   11.0930 C   0  0  0  0  0  0  0  0  0  0  0  0
    3.5420    3.2280   10.0130 C   0  0  0  0  0  0  0  0  0  0  0  0
    2.2450    3.7430    9.9450 C   0  0  0  0  0  0  0  0  0  0  0  0
    1.3180    3.4630   10.9580 C   0  0  0  0  0  0  0  0  0  0  0  0
    1.7050    2.6560   12.0370 C   0  0  0  0  0  0  0  0  0  0  0  0
   -0.0470    4.0150   10.8910 C   0  0  0  0  0  0  0  0  0  0  0  0
   -0.4520    4.5540    9.8260 O   0  0  0  0  0  0  0  0  0  0  0  0
   -0.9060    3.9280   12.0390 N   0  0  0  0  0  0  0  0  0  0  0  0
   -2.2460    4.4250   12.1490 C   0  0  0  0  0  0  0  0  0  0  0  0
   -3.3380    3.7570   11.5740 C   0  0  0  0  0  0  0  0  0  0  0  0
   -4.6300    4.2730   11.7000 C   0  0  0  0  0  0  0  0  0  0  0  0
   -4.8490    5.4640   12.4040 C   0  0  0  0  0  0  0  0  0  0  0  0
   -3.7580    6.1330   12.9780 C   0  0  0  0  0  0  0  0  0  0  0  0
   -2.4670    5.6150   12.8510 C   0  0  0  0  0  0  0  0  0  0  0  0
   -6.2120    6.0050   12.5350 C   0  0  0  0  0  0  0  0  0  0  0  0
   -6.5720    6.5570   13.6120 O   0  0  0  0  0  0  0  0  0  0  0  0
   -7.1030    5.9040   11.4640 O   0  0  0  0  0  0  0  0  0  0  0  0
   -7.0870    6.8270   10.3850 C   0  0  0  0  0  0  0  0  0  0  0  0
    6.6159   -0.9379   17.2311 H   0  0  0  0  0  0  0  0  0  0  0  0
    2.0243   -1.5165   16.5014 H   0  0  0  0  0  0  0  0  0  0  0  0
    5.4928    1.9206   13.2934 H   0  0  0  0  0  0  0  0  0  0  0  0
    7.1052    0.8232   15.2644 H   0  0  0  0  0  0  0  0  0  0  0  0
    0.3833   -3.3045   16.1432 H   0  0  0  0  0  0  0  0  0  0  0  0
   -1.8609   -3.9113   15.2512 H   0  0  0  0  0  0  0  0  0  0  0  0
    0.3015    0.3595   13.8560 H   0  0  0  0  0  0  0  0  0  0  0  0
   -4.0891   -3.3057   15.2405 H   0  0  0  0  0  0  0  0  0  0  0  0
   -5.2075   -3.2034   13.8386 H   0  0  0  0  0  0  0  0  0  0  0  0
   -3.8752   -4.4082   13.8386 H   0  0  0  0  0  0  0  0  0  0  0  0
   -0.7244    1.3580   12.1786 H   0  0  0  0  0  0  0  0  0  0  0  0
   -0.8464   -0.0701   11.0958 H   0  0  0  0  0  0  0  0  0  0  0  0
   -2.1453    1.1707   11.0958 H   0  0  0  0  0  0  0  0  0  0  0  0
    4.9440    2.0279   11.1436 H   0  0  0  0  0  0  0  0  0  0  0  0
    4.2650    3.4523    9.2149 H   0  0  0  0  0  0  0  0  0  0  0  0
    1.9499    4.3715    9.0918 H   0  0  0  0  0  0  0  0  0  0  0  0
    0.9802    2.4291   12.8327 H   0  0  0  0  0  0  0  0  0  0  0  0
   -0.5184    3.4594   12.8703 H   0  0  0  0  0  0  0  0  0  0  0  0
   -3.1755    2.8206   11.0202 H   0  0  0  0  0  0  0  0  0  0  0  0
   -5.4788    3.7419   11.2445 H   0  0  0  0  0  0  0  0  0  0  0  0
   -3.9198    7.0701   13.5308 H   0  0  0  0  0  0  0  0  0  0  0  0
   -1.6181    6.1463   13.3061 H   0  0  0  0  0  0  0  0  0  0  0  0
   -7.0692    7.8532   10.7806 H   0  0  0  0  0  0  0  0  0  0  0  0
   -6.1917    6.6558    9.7693 H   0  0  0  0  0  0  0  0  0  0  0  0
   -7.9877    6.6869    9.7693 H   0  0  0  0  0  0  0  0  0  0  0  0
  1  2  1  0
  1 10  2  0
  2  3  2  0
  3  4  1  0
  3  9  1  0
  4  5  1  0
  4  6  2  0
  5 11  1  0
  6  7  1  0
  7  8  2  0
  7 21  1  0
  8  9  1  0
  9 10  1  0
 11 12  2  0
 11 16  1  0
 12 13  1  0
 13 14  2  0
 14 15  1  0
 14 17  1  0
 15 16  2  0
 15 19  1  0
 17 18  1  0
 19 20  1  0
 21 22  2  0
 21 26  1  0
 22 23  1  0
 23 24  2  0
 24 25  1  0
 25 26  2  0
 25 27  1  0
 27 29  1  0
 27 28  2  0
 29 30  1  0
 30 35  1  0
 30 31  2  0
 31 32  1  0
 32 33  2  0
 33 36  1  0
 33 34  1  0
 34 35  2  0
 36 37  2  0
 36 38  1  0
 38 39  1  0
  1 40  1  0
  5 41  1  0
  8 42  1  0
 10 43  1  0
 12 44  1  0
 13 45  1  0
 16 46  1  0
 18 47  1  0
 18 48  1  0
 18 49  1  0
 20 50  1  0
 20 51  1  0
 20 52  1  0
 22 53  1  0
 23 54  1  0
 24 55  1  0
 26 56  1  0
 29 57  1  0
 31 58  1  0
 32 59  1  0
 34 60  1  0
 35 61  1  0
 39 62  1  0
 39 63  1  0
 39 64  1  0
M  END
>  <s_m_entry_id>  (1) 
838

>  <MODEL>  (1) 
1

>  <REMARK>  (1) 
 VINA RESULT:   -11.564      0.000      0.000
 INTER + INTRA:         -16.157
 INTER:                 -15.120
 INTRA:                  -1.037
 UNBOUND:                 0.816
  Name = /scratch/kmzp800/tmppnvfteba/tmp17sx_bu0.pdb
  11 active torsions:
  status: ('A' for Active; 'I' for Inactive)
    1  A    between atoms: N2_5  and  C4_6
    2  A    between atoms: C7_9  and  O1_10
    3  A    between atoms: O1_10  and  C8_11
    4  A    between atoms: C9_12  and  O2_13
    5  A    between atoms: O2_13  and  C10_14
    6  A    between atoms: C12_17  and  C13_18
    7  A    between atoms: C17_22  and  C18_23
    8  A    between atoms: N4_25  and  C19_26
    9  A    between atoms: C22_29  and  C23_30
   10  A    between atoms: C23_30  and  O5_32
   11  A    between atoms: O5_32  and  C24_33
                            x       y       z     vdW  Elec       q    Type
                         _______ _______ _______ _____ _____    ______ ____

>  <TORSDO>  (1) 
F 8

>  <grid_id>  (1) 
syk-prepared

>  <grid_path>  (1) 
syk_vina.pdbqt

>  <grid_filename>  (1) 
syk_vina.pdbqt

>  <docking_score>  (1) 
-11.564

>  <compound_name>  (1) 
CHEMBL3264996

>  <index_string>  (1) 
24:0:0

>  <s_m_Source_Path>  (1) 
/projects/mai/users/kmzp800_harry/pmx_colab/docking_jobs/syk/vina_prep/output

>  <s_m_Source_File>  (1) 
ptp1b_docked_conformers.sdf

>  <i_m_Source_File_Index>  (1) 
662

$$$$
