5:0:0
     RDKit          3D

 29 30  0  0  1  0  0  0  0  0999 V2000
   39.1939   17.5226   12.6830 O   0  0  0  0  0  0  0  0  0  0  0  0
   40.3611   17.0691   12.6896 C   0  0  0  0  0  0  0  0  0  0  0  0
   41.2222   17.3069   11.8124 O   0  0  0  0  0  0  0  0  0  0  0  0
   40.7468   16.1301   13.8376 C   0  0  0  0  0  0  0  0  0  0  0  0
   42.1132   15.7367   13.7437 O   0  0  0  0  0  0  0  0  0  0  0  0
   42.5220   14.9302   14.7482 C   0  0  0  0  0  0  0  0  0  0  0  0
   42.1683   13.5653   14.8805 C   0  0  0  0  0  0  0  0  0  0  0  0
   41.1765   12.6862   13.5407 Br  0  0  0  0  0  0  0  0  0  0  0  0
   42.6129   12.9370   16.0070 C   0  0  0  0  0  0  0  0  0  0  0  0
   42.3381   11.5896   16.4780 C   0  0  0  0  0  0  0  0  0  0  0  0
   41.0191   11.0907   16.4464 C   0  0  0  0  0  0  0  0  0  0  0  0
   40.7364    9.7758   16.8471 C   0  0  0  0  0  0  0  0  0  0  0  0
   41.7751    8.9542   17.3174 C   0  0  0  0  0  0  0  0  0  0  0  0
   43.0911    9.4475   17.3791 C   0  0  0  0  0  0  0  0  0  0  0  0
   44.1145    8.6395   17.8656 N   0  0  0  0  0  0  0  0  0  0  0  0
   43.3717   10.7583   16.9512 C   0  0  0  0  0  0  0  0  0  0  0  0
   43.6302   14.0142   16.9146 S   0  0  0  0  0  0  0  0  0  0  0  0
   43.3573   15.3147   15.7643 C   0  0  0  0  0  0  0  0  0  0  0  0
   44.0184   16.5887   16.0446 C   0  0  0  0  0  0  0  0  0  0  0  0
   43.8552   17.5500   15.2618 O   0  0  0  0  0  0  0  0  0  0  0  0
   44.7496   16.6861   17.0527 O   0  0  0  0  0  0  0  0  0  0  0  0
   40.5363   16.6149   14.7932 H   0  0  0  0  0  0  0  0  0  0  0  0
   40.1251   15.2431   13.7880 H   0  0  0  0  0  0  0  0  0  0  0  0
   40.2096   11.7185   16.1095 H   0  0  0  0  0  0  0  0  0  0  0  0
   39.7228    9.4092   16.7932 H   0  0  0  0  0  0  0  0  0  0  0  0
   41.5570    7.9473   17.6341 H   0  0  0  0  0  0  0  0  0  0  0  0
   43.8771    7.8001   18.3728 H   0  0  0  0  0  0  0  0  0  0  0  0
   44.3819   11.1319   16.9802 H   0  0  0  0  0  0  0  0  0  0  0  0
   44.9985    9.0647   18.1000 H   0  0  0  0  0  0  0  0  0  0  0  0
  1  2  2  0
  2  3  1  0
  2  4  1  0
  4  5  1  0
  4 22  1  0
  4 23  1  0
  5  6  1  0
  6  7  1  0
  6 18  2  0
  7  8  1  0
  7  9  2  0
  9 10  1  0
  9 17  1  0
 10 11  2  0
 10 16  1  0
 11 12  1  0
 11 24  1  0
 12 13  2  0
 12 25  1  0
 13 14  1  0
 13 26  1  0
 14 15  1  0
 14 16  2  0
 15 27  1  0
 15 29  1  0
 16 28  1  0
 17 18  1  0
 18 19  1  0
 19 20  2  0
 19 21  1  0
M  CHG  2   3  -1  21  -1
M  END
>  <s_m_entry_id>  (1) 
522

>  <s_m_Source_Path>  (1) 
/projects/mai/users/kmzp800_harry/pmx_colab/docking_jobs/ptp1b/glide-dock_SP_ptp1b_mcs_2

>  <s_m_Source_File>  (1) 
glide-dock_SP_ptp1b_mcs_2_pv.maegz

>  <i_m_Source_File_Index>  (1) 
7

>  <r_i_docking_score>  (1) 
-6.8639706851089

>  <r_i_glide_gscore>  (1) 
-6.8639706851089

>  <r_i_glide_emodel>  (1) 
-80.8601059190978

>  <index_string>  (1) 
5:0:0

$$$$
