29:0:0
     RDKit          3D

 55 60  0  0  1  0  0  0  0  0999 V2000
   -5.3370    8.8916   11.3544 C   0  0  0  0  0  0  0  0  0  0  0  0
   -5.6489    8.9630   12.8583 C   0  0  0  0  0  0  0  0  0  0  0  0
   -6.1853    7.7419   13.3621 O   0  0  0  0  0  0  0  0  0  0  0  0
   -5.2641    6.6626   13.4841 C   0  0  0  0  0  0  0  0  0  0  0  0
   -4.7251    6.1839   12.1293 C   0  0  0  0  0  0  0  0  0  0  0  0
   -3.6450    7.0438   11.6502 N   0  0  0  0  0  0  0  0  0  0  0  0
   -3.9426    8.3309   11.0218 C   0  0  0  0  0  0  0  0  0  0  0  0
   -2.2964    6.6623   11.8390 C   0  0  0  0  0  0  0  0  0  0  0  0
   -1.2638    7.2039   11.0334 C   0  0  0  0  0  0  0  0  0  0  0  0
    0.0777    6.8058   11.2064 C   0  0  0  0  0  0  0  0  0  0  0  0
    0.4220    5.8484   12.1798 C   0  0  0  0  0  0  0  0  0  0  0  0
    1.7697    5.4718   12.2899 N   0  0  0  0  0  0  0  0  0  0  0  0
    2.3350    4.2596   12.7165 C   0  0  0  0  0  0  0  0  0  0  0  0
    1.5688    3.2339   12.9645 N   0  0  0  0  0  0  0  0  0  0  0  0
    2.1170    2.0444   13.3881 C   0  0  0  0  0  0  0  0  0  0  0  0
    3.4718    1.8890   13.5683 C   0  0  0  0  0  0  0  0  0  0  0  0
    4.2673    2.9634   13.3211 N   0  0  0  0  0  0  0  0  0  0  0  0
    5.6298    3.1428   13.4526 C   0  0  0  0  0  0  0  0  0  0  0  0
    5.9050    4.4035   13.0011 C   0  0  0  0  0  0  0  0  0  0  0  0
    4.7401    5.0469   12.6096 N   0  0  0  0  0  0  0  0  0  0  0  0
    3.7496    4.1869   12.8471 C   0  0  0  0  0  0  0  0  0  0  0  0
    1.1407    0.9688   13.6802 C   0  0  0  0  0  0  0  0  0  0  0  0
    1.4275   -0.0607   14.6126 C   0  0  0  0  0  0  0  0  0  0  0  0
    0.4663   -1.0283   14.9709 C   0  0  0  0  0  0  0  0  0  0  0  0
   -0.8212   -1.0126   14.3910 C   0  0  0  0  0  0  0  0  0  0  0  0
   -2.0443   -1.7545   14.5023 C   0  0  0  0  0  0  0  0  0  0  0  0
   -2.9648   -1.2987   13.6830 N   0  0  0  0  0  0  0  0  0  0  0  0
   -2.3749   -0.2724   13.0176 N   0  0  0  0  0  0  0  0  0  0  0  0
   -1.0793   -0.0143   13.4167 C   0  0  0  0  0  0  0  0  0  0  0  0
   -0.1276    0.9538   13.0568 C   0  0  0  0  0  0  0  0  0  0  0  0
   -0.5941    5.3360   13.0174 C   0  0  0  0  0  0  0  0  0  0  0  0
   -1.9318    5.7359   12.8460 C   0  0  0  0  0  0  0  0  0  0  0  0
   -5.3890    9.9003   10.9436 H   0  0  0  0  0  0  0  0  0  0  0  0
   -6.1156    8.3273   10.8409 H   0  0  0  0  0  0  0  0  0  0  0  0
   -4.7694    9.2702   13.4244 H   0  0  0  0  0  0  0  0  0  0  0  0
   -6.4050    9.7339   13.0302 H   0  0  0  0  0  0  0  0  0  0  0  0
   -5.8029    5.8363   13.9505 H   0  0  0  0  0  0  0  0  0  0  0  0
   -4.4541    6.9174   14.1726 H   0  0  0  0  0  0  0  0  0  0  0  0
   -5.5304    6.1483   11.3965 H   0  0  0  0  0  0  0  0  0  0  0  0
   -4.3786    5.1544   12.2036 H   0  0  0  0  0  0  0  0  0  0  0  0
   -3.1971    9.0597   11.3422 H   0  0  0  0  0  0  0  0  0  0  0  0
   -3.8395    8.2246    9.9422 H   0  0  0  0  0  0  0  0  0  0  0  0
   -1.4815    7.9211   10.2569 H   0  0  0  0  0  0  0  0  0  0  0  0
    0.8435    7.2324   10.5718 H   0  0  0  0  0  0  0  0  0  0  0  0
    2.4454    6.1682   12.0089 H   0  0  0  0  0  0  0  0  0  0  0  0
    3.9542    0.9808   13.9091 H   0  0  0  0  0  0  0  0  0  0  0  0
    6.2659    2.3538   13.8256 H   0  0  0  0  0  0  0  0  0  0  0  0
    6.8607    4.9028   12.9200 H   0  0  0  0  0  0  0  0  0  0  0  0
    2.3939   -0.1025   15.0905 H   0  0  0  0  0  0  0  0  0  0  0  0
    0.7090   -1.7828   15.7082 H   0  0  0  0  0  0  0  0  0  0  0  0
   -2.2655   -2.5945   15.1410 H   0  0  0  0  0  0  0  0  0  0  0  0
   -2.8477    0.1846   12.2507 H   0  0  0  0  0  0  0  0  0  0  0  0
   -0.3831    1.7038   12.3233 H   0  0  0  0  0  0  0  0  0  0  0  0
   -0.3595    4.6436   13.8117 H   0  0  0  0  0  0  0  0  0  0  0  0
   -2.6669    5.3192   13.5198 H   0  0  0  0  0  0  0  0  0  0  0  0
  1  2  1  0
  1  7  1  0
  1 33  1  0
  1 34  1  0
  2  3  1  0
  2 35  1  0
  2 36  1  0
  3  4  1  0
  4  5  1  0
  4 37  1  0
  4 38  1  0
  5  6  1  0
  5 39  1  0
  5 40  1  0
  6  7  1  0
  6  8  1  0
  7 41  1  0
  7 42  1  0
  8  9  2  0
  8 32  1  0
  9 10  1  0
  9 43  1  0
 10 11  2  0
 10 44  1  0
 11 12  1  0
 11 31  1  0
 12 13  1  0
 12 45  1  0
 13 14  2  0
 13 21  1  0
 14 15  1  0
 15 16  2  0
 15 22  1  0
 16 17  1  0
 16 46  1  0
 17 18  1  0
 17 21  1  0
 18 19  2  0
 18 47  1  0
 19 20  1  0
 19 48  1  0
 20 21  2  0
 22 23  2  0
 22 30  1  0
 23 24  1  0
 23 49  1  0
 24 25  2  0
 24 50  1  0
 25 26  1  0
 25 29  1  0
 26 27  2  0
 26 51  1  0
 27 28  1  0
 28 29  1  0
 28 52  1  0
 29 30  2  0
 30 53  1  0
 31 32  2  0
 31 54  1  0
 32 55  1  0
M  END
>  <s_m_entry_id>  (1) 
709

>  <IC50[nM]>  (1) 
23.1

>  <s_m_Source_Path>  (1) 
/projects/mai/users/kmzp800_harry/pmx_colab/docking_jobs/syk

>  <s_m_Source_File>  (1) 
tnks2_lig.sdf

>  <i_m_Source_File_Index>  (1) 
30

>  <s_m_job_name>  (1) 
glide-dock_SP_tnks2_no_const

>  <r_i_docking_score>  (1) 
-6.07720887794364

>  <r_i_glide_gscore>  (1) 
-6.07720887794364

>  <r_i_glide_emodel>  (1) 
-66.9091655102499

>  <index_string>  (1) 
29:0:0

$$$$
