20:0:0
     RDKit          3D

 48 51  0  0  1  0  0  0  0  0999 V2000
   -4.7385    5.8603    8.7973 C   0  0  0  0  0  0  0  0  0  0  0  0
   -4.0008    5.8027   10.0101 O   0  0  0  0  0  0  0  0  0  0  0  0
   -3.7029    4.5621   10.5362 C   0  0  0  0  0  0  0  0  0  0  0  0
   -4.2399    3.3509   10.0349 C   0  0  0  0  0  0  0  0  0  0  0  0
   -3.8883    2.1212   10.6167 C   0  0  0  0  0  0  0  0  0  0  0  0
   -2.9744    2.0667   11.6837 C   0  0  0  0  0  0  0  0  0  0  0  0
   -2.6815    0.8040   12.2253 N   0  0  0  0  0  0  0  0  0  0  0  0
   -1.5662    0.3744   12.9617 C   0  0  0  0  0  0  0  0  0  0  0  0
   -0.4548    1.0389   12.8579 N   0  0  0  0  0  0  0  0  0  0  0  0
    0.6629    0.6174   13.5378 C   0  0  0  0  0  0  0  0  0  0  0  0
    0.6725   -0.5086   14.3272 C   0  0  0  0  0  0  0  0  0  0  0  0
   -0.4914   -1.2009   14.4439 N   0  0  0  0  0  0  0  0  0  0  0  0
   -0.8181   -2.3352   15.1623 C   0  0  0  0  0  0  0  0  0  0  0  0
   -2.1402   -2.5821   14.9186 C   0  0  0  0  0  0  0  0  0  0  0  0
   -2.6734   -1.6304   14.0549 N   0  0  0  0  0  0  0  0  0  0  0  0
   -1.6702   -0.7956   13.7728 C   0  0  0  0  0  0  0  0  0  0  0  0
    1.8407    1.5014   13.4169 C   0  0  0  0  0  0  0  0  0  0  0  0
    3.1670    1.0159   13.4503 C   0  0  0  0  0  0  0  0  0  0  0  0
    4.2627    1.9040   13.4176 C   0  0  0  0  0  0  0  0  0  0  0  0
    4.0506    3.2959   13.3574 C   0  0  0  0  0  0  0  0  0  0  0  0
    5.1149    4.1352   13.3449 F   0  0  0  0  0  0  0  0  0  0  0  0
    2.7316    3.7949   13.2941 C   0  0  0  0  0  0  0  0  0  0  0  0
    1.6505    2.8957   13.3096 C   0  0  0  0  0  0  0  0  0  0  0  0
    2.4300    5.2546   13.1956 C   0  0  0  0  0  0  0  0  0  0  0  0
    1.7827    5.7028   12.2526 O   0  0  0  0  0  0  0  0  0  0  0  0
    2.8301    6.0039   14.2174 N   0  0  0  0  0  0  0  0  0  0  0  0
   -2.4507    3.2743   12.1944 C   0  0  0  0  0  0  0  0  0  0  0  0
   -2.8176    4.5251   11.6387 C   0  0  0  0  0  0  0  0  0  0  0  0
   -2.3517    5.7390   12.1075 O   0  0  0  0  0  0  0  0  0  0  0  0
   -1.5136    5.7531   13.2539 C   0  0  0  0  0  0  0  0  0  0  0  0
   -4.8098    6.8974    8.4705 H   0  0  0  0  0  0  0  0  0  0  0  0
   -4.2467    5.2968    8.0036 H   0  0  0  0  0  0  0  0  0  0  0  0
   -5.7524    5.4845    8.9344 H   0  0  0  0  0  0  0  0  0  0  0  0
   -4.9291    3.3411    9.2061 H   0  0  0  0  0  0  0  0  0  0  0  0
   -4.3106    1.2096   10.2176 H   0  0  0  0  0  0  0  0  0  0  0  0
   -3.1759    0.0255   11.8040 H   0  0  0  0  0  0  0  0  0  0  0  0
    1.5300   -0.8613   14.8925 H   0  0  0  0  0  0  0  0  0  0  0  0
   -0.0809   -2.8359   15.7756 H   0  0  0  0  0  0  0  0  0  0  0  0
   -2.7605   -3.3780   15.3079 H   0  0  0  0  0  0  0  0  0  0  0  0
    3.3548   -0.0446   13.5180 H   0  0  0  0  0  0  0  0  0  0  0  0
    5.2708    1.5188   13.4577 H   0  0  0  0  0  0  0  0  0  0  0  0
    0.6483    3.2955   13.2755 H   0  0  0  0  0  0  0  0  0  0  0  0
    2.5796    6.9892   14.2160 H   0  0  0  0  0  0  0  0  0  0  0  0
    3.3662    5.6055   14.9875 H   0  0  0  0  0  0  0  0  0  0  0  0
   -1.7607    3.2311   13.0180 H   0  0  0  0  0  0  0  0  0  0  0  0
   -1.1690    6.7706   13.4406 H   0  0  0  0  0  0  0  0  0  0  0  0
   -2.0462    5.4076   14.1418 H   0  0  0  0  0  0  0  0  0  0  0  0
   -0.6257    5.1436   13.1089 H   0  0  0  0  0  0  0  0  0  0  0  0
  1  2  1  0
  1 31  1  0
  1 32  1  0
  1 33  1  0
  2  3  1  0
  3  4  2  0
  3 28  1  0
  4  5  1  0
  4 34  1  0
  5  6  2  0
  5 35  1  0
  6  7  1  0
  6 27  1  0
  7  8  1  0
  7 36  1  0
  8  9  2  0
  8 16  1  0
  9 10  1  0
 10 11  2  0
 10 17  1  0
 11 12  1  0
 11 37  1  0
 12 13  1  0
 12 16  1  0
 13 14  2  0
 13 38  1  0
 14 15  1  0
 14 39  1  0
 15 16  2  0
 17 18  2  0
 17 23  1  0
 18 19  1  0
 18 40  1  0
 19 20  2  0
 19 41  1  0
 20 21  1  0
 20 22  1  0
 22 23  2  0
 22 24  1  0
 23 42  1  0
 24 25  2  0
 24 26  1  0
 26 43  1  0
 26 44  1  0
 27 28  2  0
 27 45  1  0
 28 29  1  0
 29 30  1  0
 30 46  1  0
 30 47  1  0
 30 48  1  0
M  END
>  <s_m_entry_id>  (1) 
700

>  <IC50[nM]>  (1) 
67.3

>  <s_m_Source_Path>  (1) 
/projects/mai/users/kmzp800_harry/pmx_colab/docking_jobs/syk

>  <s_m_Source_File>  (1) 
tnks2_lig.sdf

>  <i_m_Source_File_Index>  (1) 
21

>  <s_m_job_name>  (1) 
glide-dock_SP_tnks2_no_const

>  <r_i_docking_score>  (1) 
-7.54528255674277

>  <r_i_glide_gscore>  (1) 
-7.54528255674277

>  <r_i_glide_emodel>  (1) 
-73.2994926449082

>  <index_string>  (1) 
20:0:0

$$$$
