6:0:0
     RDKit          3D

 65 70  0  0  1  0  0  0  0  0999 V2000
    1.5460    0.7970   13.3910 C   0  0  0  0  0  0  0  0  0  0  0  0
    2.8990    0.4350   13.4700 C   0  0  0  0  0  0  0  0  0  0  0  0
    3.8580    1.1220   12.7220 C   0  0  0  0  0  0  0  0  0  0  0  0
    3.4730    2.1750   11.8890 C   0  0  0  0  0  0  0  0  0  0  0  0
    2.1240    2.5510   11.7960 C   0  0  0  0  0  0  0  0  0  0  0  0
    1.1700    1.8550   12.5520 C   0  0  0  0  0  0  0  0  0  0  0  0
    1.7010    3.6620   10.9200 C   0  0  0  0  0  0  0  0  0  0  0  0
    0.3780    3.8140   10.5990 N   0  0  0  0  0  0  0  0  0  0  0  0
   -0.0690    4.8220    9.7940 C   0  0  0  0  0  0  0  0  0  0  0  0
   -1.4580    4.9690    9.4660 N   0  0  0  0  0  0  0  0  0  0  0  0
    0.8770    5.7150    9.2950 C   0  0  0  0  0  0  0  0  0  0  0  0
    0.6450    6.7670    8.4920 N   0  0  0  0  0  0  0  0  0  0  0  0
    1.8790    7.3000    8.3000 C   0  0  0  0  0  0  0  0  0  0  0  0
    2.8340    6.5580    8.9920 C   0  0  0  0  0  0  0  0  0  0  0  0
    2.1680    5.5700    9.6050 N   0  0  0  0  0  0  0  0  0  0  0  0
    2.6360    4.5800   10.4010 C   0  0  0  0  0  0  0  0  0  0  0  0
   -2.5400    4.1350    9.9020 C   0  0  0  0  0  0  0  0  0  0  0  0
   -2.7520    3.8360   11.2540 C   0  0  0  0  0  0  0  0  0  0  0  0
   -3.8170    3.0200   11.6390 C   0  0  0  0  0  0  0  0  0  0  0  0
   -4.6880    2.4880   10.6750 C   0  0  0  0  0  0  0  0  0  0  0  0
   -4.4830    2.7830    9.3180 C   0  0  0  0  0  0  0  0  0  0  0  0
   -3.4090    3.6060    8.9430 C   0  0  0  0  0  0  0  0  0  0  0  0
   -5.7620    1.6680   11.0420 O   0  0  0  0  0  0  0  0  0  0  0  0
   -7.1180    2.0720   10.9100 C   0  0  0  0  0  0  0  0  0  0  0  0
   -5.3570    2.2500    8.3640 O   0  0  0  0  0  0  0  0  0  0  0  0
   -5.5560    2.8440    7.0880 C   0  0  0  0  0  0  0  0  0  0  0  0
   -0.2570   -0.9500   13.5580 N   0  0  0  0  0  0  0  0  0  0  0  0
    0.5330    0.0760   14.1800 C   0  0  0  0  0  0  0  0  0  0  0  0
    0.3660    0.3650   15.3960 O   0  0  0  0  0  0  0  0  0  0  0  0
   -3.2320   -3.3540   15.4080 C   0  0  0  0  0  0  0  0  0  0  0  0
   -3.5890   -2.1310   14.8220 C   0  0  0  0  0  0  0  0  0  0  0  0
   -2.6200   -1.3320   14.2100 C   0  0  0  0  0  0  0  0  0  0  0  0
   -1.2790   -1.7430   14.1760 C   0  0  0  0  0  0  0  0  0  0  0  0
   -0.9230   -2.9620   14.7610 C   0  0  0  0  0  0  0  0  0  0  0  0
   -1.8910   -3.7630   15.3730 C   0  0  0  0  0  0  0  0  0  0  0  0
   -4.5250   -4.2770   17.4040 C   0  0  0  0  0  0  0  0  0  0  0  0
   -5.5250   -5.1640   17.5630 N   0  0  0  0  0  0  0  0  0  0  0  0
   -5.8840   -5.6350   16.3790 N   0  0  0  0  0  0  0  0  0  0  0  0
   -5.1250   -5.0640   15.4260 C   0  0  0  0  0  0  0  0  0  0  0  0
   -4.2520   -4.1970   16.0530 C   0  0  0  0  0  0  0  0  0  0  0  0
    3.2063   -0.3941   14.1243 H   0  0  0  0  0  0  0  0  0  0  0  0
    4.9174    0.8335   12.7890 H   0  0  0  0  0  0  0  0  0  0  0  0
    4.2320    2.7131   11.3021 H   0  0  0  0  0  0  0  0  0  0  0  0
    0.1106    2.1436   12.4857 H   0  0  0  0  0  0  0  0  0  0  0  0
   -1.7044    5.7581    8.8516 H   0  0  0  0  0  0  0  0  0  0  0  0
    2.0935    8.1881    7.6874 H   0  0  0  0  0  0  0  0  0  0  0  0
    3.9173    6.7456    9.0279 H   0  0  0  0  0  0  0  0  0  0  0  0
    3.7076    4.4951   10.6343 H   0  0  0  0  0  0  0  0  0  0  0  0
   -2.0748    4.2469   12.0172 H   0  0  0  0  0  0  0  0  0  0  0  0
   -3.9747    2.7925   12.7036 H   0  0  0  0  0  0  0  0  0  0  0  0
   -3.2490    3.8378    7.8797 H   0  0  0  0  0  0  0  0  0  0  0  0
   -7.5602    2.2037   11.9085 H   0  0  0  0  0  0  0  0  0  0  0  0
   -7.1653    3.0232   10.3596 H   0  0  0  0  0  0  0  0  0  0  0  0
   -7.6782    1.3017   10.3596 H   0  0  0  0  0  0  0  0  0  0  0  0
   -5.9031    3.8799    7.2159 H   0  0  0  0  0  0  0  0  0  0  0  0
   -4.6078    2.8412    6.5303 H   0  0  0  0  0  0  0  0  0  0  0  0
   -6.3111    2.2705    6.5303 H   0  0  0  0  0  0  0  0  0  0  0  0
   -0.0692   -1.1356   12.5624 H   0  0  0  0  0  0  0  0  0  0  0  0
   -4.6375   -1.7990   14.8443 H   0  0  0  0  0  0  0  0  0  0  0  0
   -2.9102   -0.3749   13.7520 H   0  0  0  0  0  0  0  0  0  0  0  0
    0.1259   -3.2927   14.7394 H   0  0  0  0  0  0  0  0  0  0  0  0
   -1.5993   -4.7201   15.8300 H   0  0  0  0  0  0  0  0  0  0  0  0
   -4.0180   -3.7180   18.2043 H   0  0  0  0  0  0  0  0  0  0  0  0
   -6.6270   -6.3289   16.2135 H   0  0  0  0  0  0  0  0  0  0  0  0
   -5.1884   -5.2533   14.3443 H   0  0  0  0  0  0  0  0  0  0  0  0
  1  2  2  0
  1 28  1  0
  1  6  1  0
  2  3  1  0
  3  4  2  0
  4  5  1  0
  5  6  2  0
  5  7  1  0
  7  8  1  0
  7 16  2  0
  8  9  2  0
  9 10  1  0
  9 11  1  0
 10 17  1  0
 11 15  1  0
 11 12  2  0
 12 13  1  0
 13 14  2  0
 14 15  1  0
 15 16  1  0
 17 18  2  0
 17 22  1  0
 18 19  1  0
 19 20  2  0
 20 23  1  0
 20 21  1  0
 21 22  2  0
 21 25  1  0
 23 24  1  0
 25 26  1  0
 27 33  1  0
 27 28  1  0
 28 29  2  0
 30 40  1  0
 30 31  2  0
 30 35  1  0
 31 32  1  0
 32 33  2  0
 33 34  1  0
 34 35  2  0
 36 37  2  0
 36 40  1  0
 37 38  1  0
 38 39  1  0
 39 40  2  0
  2 41  1  0
  3 42  1  0
  4 43  1  0
  6 44  1  0
 10 45  1  0
 13 46  1  0
 14 47  1  0
 16 48  1  0
 18 49  1  0
 19 50  1  0
 22 51  1  0
 24 52  1  0
 24 53  1  0
 24 54  1  0
 26 55  1  0
 26 56  1  0
 26 57  1  0
 27 58  1  0
 31 59  1  0
 32 60  1  0
 34 61  1  0
 35 62  1  0
 36 63  1  0
 38 64  1  0
 39 65  1  0
M  END
>  <s_m_entry_id>  (1) 
7

>  <MODEL>  (1) 
1

>  <REMARK>  (1) 
 VINA RESULT:    -8.620      0.000      0.000
 INTER + INTRA:         -13.168
 INTER:                 -12.147
 INTRA:                  -1.021
 UNBOUND:                -1.021
  Name = /scratch/kmzp800/tmpkeom2v4d/tmpvvvfc7un.pdb
  9 active torsions:
  status: ('A' for Active; 'I' for Inactive)
    1  A    between atoms: C3_5  and  C4_6
    2  A    between atoms: C7_9  and  N3_10
    3  A    between atoms: C8_11  and  C9_13
    4  A    between atoms: C13_17  and  C14_18
    5  A    between atoms: N5_21  and  C16_22
    6  A    between atoms: C19_25  and  O2_26
    7  A    between atoms: O2_26  and  C20_27
    8  A    between atoms: C21_28  and  O3_29
    9  A    between atoms: O3_29  and  C22_30
                            x       y       z     vdW  Elec       q    Type
                         _______ _______ _______ _____ _____    ______ ____

>  <TORSDO>  (1) 
F 7

>  <grid_id>  (1) 
syk-prepared

>  <grid_path>  (1) 
syk_vina.pdbqt

>  <grid_filename>  (1) 
syk_vina.pdbqt

>  <docking_score>  (1) 
-8.62

>  <compound_name>  (1) 
CHEMBL3265004

>  <index_string>  (1) 
6:0:0

>  <s_m_Source_Path>  (1) 
/projects/mai/users/kmzp800_harry/pmx_colab/docking_jobs/syk/vina_prep/output

>  <s_m_Source_File>  (1) 
ptp1b_docked_conformers.sdf

>  <i_m_Source_File_Index>  (1) 
7

$$$$
