23:0:0
     RDKit          3D

 64 68  0  0  1  0  0  0  0  0999 V2000
   -8.6950    6.0029   12.2798 C   0  0  0  0  0  0  0  0  0  0  0  0
   -7.3302    5.6445   12.1671 O   0  0  0  0  0  0  0  0  0  0  0  0
   -6.4046    6.2818   12.9127 C   0  0  0  0  0  0  0  0  0  0  0  0
   -6.6629    7.2077   13.6838 O   0  0  0  0  0  0  0  0  0  0  0  0
   -5.0334    5.7345   12.7105 C   0  0  0  0  0  0  0  0  0  0  0  0
   -3.9726    6.1124   13.5669 C   0  0  0  0  0  0  0  0  0  0  0  0
   -2.6723    5.5938   13.3674 C   0  0  0  0  0  0  0  0  0  0  0  0
   -2.4229    4.6876   12.3043 C   0  0  0  0  0  0  0  0  0  0  0  0
   -1.1180    4.1674   12.0823 N   0  0  0  0  0  0  0  0  0  0  0  0
   -0.5692    3.7640   10.9172 C   0  0  0  0  0  0  0  0  0  0  0  0
   -1.1372    3.7454    9.8263 O   0  0  0  0  0  0  0  0  0  0  0  0
    0.8725    3.3933   11.0172 C   0  0  0  0  0  0  0  0  0  0  0  0
    1.7944    3.8550   10.0458 C   0  0  0  0  0  0  0  0  0  0  0  0
    3.1475    3.5040   10.1331 C   0  0  0  0  0  0  0  0  0  0  0  0
    3.5472    2.6444   11.1687 C   0  0  0  0  0  0  0  0  0  0  0  0
    2.6393    2.1519   12.1432 C   0  0  0  0  0  0  0  0  0  0  0  0
    1.2886    2.5566   12.0715 C   0  0  0  0  0  0  0  0  0  0  0  0
    3.1183    1.2392   13.2125 C   0  0  0  0  0  0  0  0  0  0  0  0
    4.4169    1.2795   13.6742 C   0  0  0  0  0  0  0  0  0  0  0  0
    4.7546    0.4956   14.7222 N   0  0  0  0  0  0  0  0  0  0  0  0
    5.9045    0.3871   15.4878 C   0  0  0  0  0  0  0  0  0  0  0  0
    5.5995   -0.5092   16.4890 C   0  0  0  0  0  0  0  0  0  0  0  0
    4.3569   -1.0586   16.3250 N   0  0  0  0  0  0  0  0  0  0  0  0
    3.8260   -0.4140   15.2954 C   0  0  0  0  0  0  0  0  0  0  0  0
    2.5250   -0.4366   14.7279 C   0  0  0  0  0  0  0  0  0  0  0  0
    1.6048   -1.3400   15.3012 N   0  0  0  0  0  0  0  0  0  0  0  0
    0.2400   -1.5581   15.0733 C   0  0  0  0  0  0  0  0  0  0  0  0
   -0.3737   -2.5772   15.8174 C   0  0  0  0  0  0  0  0  0  0  0  0
   -1.7443   -2.8336   15.7016 C   0  0  0  0  0  0  0  0  0  0  0  0
   -2.5346   -2.0771   14.8120 C   0  0  0  0  0  0  0  0  0  0  0  0
   -3.8936   -2.2532   14.6752 O   0  0  0  0  0  0  0  0  0  0  0  0
   -4.5461   -3.1321   15.5825 C   0  0  0  0  0  0  0  0  0  0  0  0
   -1.9265   -1.0595   14.0352 C   0  0  0  0  0  0  0  0  0  0  0  0
   -2.7429   -0.3232   13.1988 O   0  0  0  0  0  0  0  0  0  0  0  0
   -2.1882    0.7234   12.4078 C   0  0  0  0  0  0  0  0  0  0  0  0
   -0.5451   -0.8035   14.1762 C   0  0  0  0  0  0  0  0  0  0  0  0
    2.1885    0.3674   13.7466 N   0  0  0  0  0  0  0  0  0  0  0  0
   -3.4852    4.3046   11.4614 C   0  0  0  0  0  0  0  0  0  0  0  0
   -4.7712    4.8281   11.6614 C   0  0  0  0  0  0  0  0  0  0  0  0
   -9.2882    5.3875   11.6066 H   0  0  0  0  0  0  0  0  0  0  0  0
   -8.8547    7.0474   12.0091 H   0  0  0  0  0  0  0  0  0  0  0  0
   -9.0693    5.8433   13.2915 H   0  0  0  0  0  0  0  0  0  0  0  0
   -4.1348    6.8034   14.3855 H   0  0  0  0  0  0  0  0  0  0  0  0
   -1.8718    5.9040   14.0287 H   0  0  0  0  0  0  0  0  0  0  0  0
   -0.4994    4.1460   12.8755 H   0  0  0  0  0  0  0  0  0  0  0  0
    1.4615    4.4866    9.2343 H   0  0  0  0  0  0  0  0  0  0  0  0
    3.8667    3.8774    9.4151 H   0  0  0  0  0  0  0  0  0  0  0  0
    4.5794    2.3519   11.2195 H   0  0  0  0  0  0  0  0  0  0  0  0
    0.5383    2.2171   12.7822 H   0  0  0  0  0  0  0  0  0  0  0  0
    5.1947    1.9339   13.2893 H   0  0  0  0  0  0  0  0  0  0  0  0
    6.7745    0.9799   15.2370 H   0  0  0  0  0  0  0  0  0  0  0  0
    6.1641   -0.7812   17.3505 H   0  0  0  0  0  0  0  0  0  0  0  0
    1.9917   -1.9061   16.0549 H   0  0  0  0  0  0  0  0  0  0  0  0
    0.2047   -3.1748   16.5031 H   0  0  0  0  0  0  0  0  0  0  0  0
   -2.1537   -3.6092   16.3218 H   0  0  0  0  0  0  0  0  0  0  0  0
   -5.6141   -3.1543   15.3726 H   0  0  0  0  0  0  0  0  0  0  0  0
   -4.1929   -4.1567   15.4836 H   0  0  0  0  0  0  0  0  0  0  0  0
   -4.4332   -2.8087   16.6179 H   0  0  0  0  0  0  0  0  0  0  0  0
   -2.9847    1.1803   11.8189 H   0  0  0  0  0  0  0  0  0  0  0  0
   -1.7540    1.5114   13.0224 H   0  0  0  0  0  0  0  0  0  0  0  0
   -1.4424    0.3407   11.7110 H   0  0  0  0  0  0  0  0  0  0  0  0
   -0.0903   -0.0194   13.5980 H   0  0  0  0  0  0  0  0  0  0  0  0
   -3.3269    3.6041   10.6512 H   0  0  0  0  0  0  0  0  0  0  0  0
   -5.5591    4.5153   10.9909 H   0  0  0  0  0  0  0  0  0  0  0  0
  1  2  1  0
  1 40  1  0
  1 41  1  0
  1 42  1  0
  2  3  1  0
  3  4  2  0
  3  5  1  0
  5  6  2  0
  5 39  1  0
  6  7  1  0
  6 43  1  0
  7  8  2  0
  7 44  1  0
  8  9  1  0
  8 38  1  0
  9 10  1  0
  9 45  1  0
 10 11  2  0
 10 12  1  0
 12 13  2  0
 12 17  1  0
 13 14  1  0
 13 46  1  0
 14 15  2  0
 14 47  1  0
 15 16  1  0
 15 48  1  0
 16 17  2  0
 16 18  1  0
 17 49  1  0
 18 19  2  0
 18 37  1  0
 19 20  1  0
 19 50  1  0
 20 21  1  0
 20 24  1  0
 21 22  2  0
 21 51  1  0
 22 23  1  0
 22 52  1  0
 23 24  2  0
 24 25  1  0
 25 26  1  0
 25 37  2  0
 26 27  1  0
 26 53  1  0
 27 28  2  0
 27 36  1  0
 28 29  1  0
 28 54  1  0
 29 30  2  0
 29 55  1  0
 30 31  1  0
 30 33  1  0
 31 32  1  0
 32 56  1  0
 32 57  1  0
 32 58  1  0
 33 34  1  0
 33 36  2  0
 34 35  1  0
 35 59  1  0
 35 60  1  0
 35 61  1  0
 36 62  1  0
 38 39  2  0
 38 63  1  0
 39 64  1  0
M  END
>  <s_m_entry_id>  (1) 
1089

>  <IC50[nM]>  (1) 
15.2

>  <s_m_Source_Path>  (1) 
/projects/mai/users/kmzp800_harry/pmx_colab/docking_jobs/syk

>  <s_m_Source_File>  (1) 
tnks2_lig.sdf

>  <i_m_Source_File_Index>  (1) 
25

>  <s_m_job_name>  (1) 
glide-dock_SP_syk_mcs

>  <r_i_docking_score>  (1) 
-7.40559477586462

>  <r_i_glide_gscore>  (1) 
-7.40559477586462

>  <r_i_glide_emodel>  (1) 
-65.6707891958114

>  <index_string>  (1) 
23:0:0

$$$$
