lig_23475
                    3D
 Schrodinger Suite 2021-4.
 42 44  0  0  1  0            999 V2000
   42.3210   12.8060   15.7170 C   0  0  0  0  0  0
   43.4210   13.6160   16.7040 S   0  0  0  0  0  0
   43.3680   15.0880   15.9050 C   0  0  0  0  0  0
   42.4760   14.9860   14.8390 C   0  0  0  0  0  0
   41.8910   13.6960   14.7170 C   0  0  0  0  0  0
   40.7630   13.1620   13.2510 Br  0  0  0  0  0  0
   42.3120    9.1940   16.9020 C   0  0  0  0  0  0
   42.6850   10.5310   16.7410 C   0  0  0  0  0  0
   41.9350   11.3900   15.9260 C   0  0  0  0  0  0
   40.8120   10.8760   15.2620 C   0  0  0  0  0  0
   40.4290    9.5360   15.4170 C   0  0  0  0  0  0
   41.1850    8.7000   16.2420 C   0  0  0  0  0  0
   39.2800    9.0020   14.7440 N   0  0  0  0  0  0
   38.9200    7.5880   14.6510 C   0  0  0  0  0  0
   39.4970    6.9480   13.4030 C   0  0  0  0  0  0
   38.4540    5.9530   12.9510 C   0  0  0  0  0  0
   37.1250    6.5360   13.3840 C   0  0  0  0  0  0
   37.4130    7.3950   14.6030 C   0  0  0  0  0  0
   44.1410   16.2770   16.2970 C   0  0  0  0  0  0
   44.4800   17.1230   15.4280 O   0  0  0  0  0  0
   44.5060   16.4800   17.6230 O   0  5  0  0  0  0
   42.2400   16.0860   14.0020 O   0  0  0  0  0  0
   41.1760   17.0100   14.1630 C   0  0  0  0  0  0
   40.4020   17.1030   12.8980 C   0  0  0  0  0  0
   39.1440   17.1110   12.9290 O   0  5  0  0  0  0
   41.0670   17.2250   11.6850 O   0  0  0  0  0  0
   42.9059    8.5310   17.5483 H   0  0  0  0  0  0
   43.5767   10.9134   17.2594 H   0  0  0  0  0  0
   40.2215   11.5350   14.6085 H   0  0  0  0  0  0
   40.8913    7.6480   16.3723 H   0  0  0  0  0  0
   38.6514    9.6762   14.2845 H   0  0  0  0  0  0
   39.3353    7.1119   15.5515 H   0  0  0  0  0  0
   39.6698    7.7063   12.6250 H   0  0  0  0  0  0
   40.4671    6.4674   13.5978 H   0  0  0  0  0  0
   38.4840    5.8343   11.8578 H   0  0  0  0  0  0
   38.6242    4.9571   13.3860 H   0  0  0  0  0  0
   36.6977    7.1502   12.5776 H   0  0  0  0  0  0
   36.3976    5.7441   13.6159 H   0  0  0  0  0  0
   37.0659    6.8880   15.5154 H   0  0  0  0  0  0
   36.8908    8.3611   14.5403 H   0  0  0  0  0  0
   40.5144   16.6692   14.9730 H   0  0  0  0  0  0
   41.5858   17.9993   14.4145 H   0  0  0  0  0  0
  1  9  1  0  0  0
  1  2  1  0  0  0
  1  5  2  0  0  0
  2  3  1  0  0  0
  3 19  1  0  0  0
  3  4  2  0  0  0
  4  5  1  0  0  0
  4 22  1  0  0  0
  5  6  1  0  0  0
  7  8  2  0  0  0
  7 12  1  0  0  0
  7 27  1  0  0  0
  8  9  1  0  0  0
  8 28  1  0  0  0
  9 10  2  0  0  0
 10 11  1  0  0  0
 10 29  1  0  0  0
 11 12  2  0  0  0
 11 13  1  0  0  0
 12 30  1  0  0  0
 13 14  1  0  0  0
 13 31  1  0  0  0
 14 15  1  0  0  0
 14 18  1  0  0  0
 14 32  1  0  0  0
 15 16  1  0  0  0
 15 33  1  0  0  0
 15 34  1  0  0  0
 16 17  1  0  0  0
 16 35  1  0  0  0
 16 36  1  0  0  0
 17 18  1  0  0  0
 17 37  1  0  0  0
 17 38  1  0  0  0
 18 39  1  0  0  0
 18 40  1  0  0  0
 19 21  1  0  0  0
 19 20  2  0  0  0
 22 23  1  0  0  0
 23 24  1  0  0  0
 23 41  1  0  0  0
 23 42  1  0  0  0
 24 25  1  0  0  0
 24 26  2  0  0  0
M  CHG  2  21  -1  25  -1
M  END
> <s_m_entry_id>
1650

> <MODEL>
3

> <REMARK>
 VINA RESULT:    -6.652      4.464      7.583
 INTER + INTRA:         -10.687
 INTER:                 -10.595
 INTRA:                  -0.092
 UNBOUND:                -1.313
  Name = /scratch/kmzp800/tmp3_cd83oe/tmpckwm1xib.pdb
  7 active torsions:
  status: ('A' for Active; 'I' for Inactive)
    1  A    between atoms: C3_3  and  C4_4
    2  A    between atoms: C5_6  and  C6_7
    3  A    between atoms: C7_10  and  O3_11
    4  A    between atoms: O3_11  and  C8_12
    5  A    between atoms: C8_12  and  C9_13
    6  A    between atoms: C12_19  and  N1_20
    7  A    between atoms: N1_20  and  C13_21
                            x       y       z     vdW  Elec       q    Type
                         _______ _______ _______ _____ _____    ______ ____

> <TORSDO>
F 7

> <grid_id>
ptp1b-prepared

> <grid_path>
ptp1b_vina.pdbqt

> <grid_filename>
ptp1b_vina.pdbqt

> <docking_score>
-6.652

> <compound_name>
lig_23475

> <index_string>
0:0:2

> <s_m_Source_Path>
/projects/mai/users/kmzp800_harry/pmx_colab/docking_jobs

> <s_m_Source_File>
ptp1b_vina_mcs_confs.sdf

> <i_m_Source_File_Index>
1

> <s_m_entry_id>
1217

> <s_m_Source_Path>
/projects/mai/users/kmzp800_harry/pmx_colab/docking_jobs/ptp1b

> <s_m_Source_File>
ptp1b_confs_vina_mcs.sdf

> <i_m_Source_File_Index>
1

$$$$
lig_23473
                    3D
 Schrodinger Suite 2021-4.
 41 43  0  0  1  0            999 V2000
   42.3850    9.1790   17.0600 C   0  0  0  0  0  0
   41.3070    8.6510   16.3450 C   0  0  0  0  0  0
   40.5710    9.4650   15.4810 C   0  0  0  0  0  0
   40.9120   10.8120   15.3280 C   0  0  0  0  0  0
   41.9870   11.3620   16.0390 C   0  0  0  0  0  0
   42.7160   10.5340   16.9040 C   0  0  0  0  0  0
   42.3830   12.7820   15.8830 C   0  0  0  0  0  0
   43.3570   13.6080   16.9830 S   0  0  0  0  0  0
   43.3870   15.0840   16.1830 C   0  0  0  0  0  0
   42.6010   14.9610   15.0300 C   0  0  0  0  0  0
   42.0600   13.6760   14.8500 C   0  0  0  0  0  0
   40.9290   13.2890   13.3490 Br  0  0  0  0  0  0
   44.2240   16.2190   16.6070 C   0  0  0  0  0  0
   44.3410   16.4870   17.8310 O   0  5  0  0  0  0
   44.9420   16.9620   15.6790 O   0  0  0  0  0  0
   42.3170   15.9930   14.1260 O   0  0  0  0  0  0
   41.2090   16.8740   14.2660 C   0  0  0  0  0  0
   40.6780   17.2540   12.9270 C   0  0  0  0  0  0
   41.4670   17.4240   11.9620 O   0  0  0  0  0  0
   39.3090   17.3780   12.7330 O   0  5  0  0  0  0
   43.1090    8.3400   17.9160 O   0  0  0  0  0  0
   43.1170    8.4840   19.3350 C   0  0  0  0  0  0
   46.9730    9.7560   20.7190 C   0  0  0  0  0  0
   46.8530    8.5960   19.9490 C   0  0  0  0  0  0
   45.5960    8.1850   19.4950 C   0  0  0  0  0  0
   44.4570    8.9330   19.8130 C   0  0  0  0  0  0
   44.5790   10.0940   20.5840 C   0  0  0  0  0  0
   45.8360   10.5050   21.0370 C   0  0  0  0  0  0
   41.0372    7.5911   16.4629 H   0  0  0  0  0  0
   39.7224    9.0458   14.9205 H   0  0  0  0  0  0
   40.3307   11.4465   14.6427 H   0  0  0  0  0  0
   43.5612   10.9531   17.4697 H   0  0  0  0  0  0
   40.4170   16.3724   14.8414 H   0  0  0  0  0  0
   41.5385   17.7826   14.7912 H   0  0  0  0  0  0
   42.3617    9.2287   19.6264 H   0  0  0  0  0  0
   42.8881    7.5091   19.7902 H   0  0  0  0  0  0
   47.9621   10.0799   21.0750 H   0  0  0  0  0  0
   47.7475    8.0062   19.7000 H   0  0  0  0  0  0
   45.5024    7.2729   18.8873 H   0  0  0  0  0  0
   43.6849   10.6840   20.8340 H   0  0  0  0  0  0
   45.9306   11.4177   21.6437 H   0  0  0  0  0  0
  1 21  1  0  0  0
  1  2  2  0  0  0
  1  6  1  0  0  0
  2  3  1  0  0  0
  2 29  1  0  0  0
  3  4  2  0  0  0
  3 30  1  0  0  0
  4  5  1  0  0  0
  4 31  1  0  0  0
  5  6  2  0  0  0
  5  7  1  0  0  0
  6 32  1  0  0  0
  7  8  1  0  0  0
  7 11  2  0  0  0
  8  9  1  0  0  0
  9 13  1  0  0  0
  9 10  2  0  0  0
 10 11  1  0  0  0
 10 16  1  0  0  0
 11 12  1  0  0  0
 13 14  1  0  0  0
 13 15  2  0  0  0
 16 17  1  0  0  0
 17 18  1  0  0  0
 17 33  1  0  0  0
 17 34  1  0  0  0
 18 19  2  0  0  0
 18 20  1  0  0  0
 21 22  1  0  0  0
 22 26  1  0  0  0
 22 35  1  0  0  0
 22 36  1  0  0  0
 23 28  2  0  0  0
 23 24  1  0  0  0
 23 37  1  0  0  0
 24 25  2  0  0  0
 24 38  1  0  0  0
 25 26  1  0  0  0
 25 39  1  0  0  0
 26 27  2  0  0  0
 27 28  1  0  0  0
 27 40  1  0  0  0
 28 41  1  0  0  0
M  CHG  2  14  -1  20  -1
M  END
> <s_m_entry_id>
1651

> <MODEL>
4

> <REMARK>
 VINA RESULT:    -7.207      3.154      8.939
 INTER + INTRA:         -11.677
 INTER:                 -11.026
 INTRA:                  -0.652
 UNBOUND:                -1.100
  Name = /scratch/kmzp800/tmpq_j99nk2/tmp042hmrk0.pdb
  8 active torsions:
  status: ('A' for Active; 'I' for Inactive)
    1  A    between atoms: C4_4  and  C5_5
    2  A    between atoms: C5_5  and  O1_6
    3  A    between atoms: O1_6  and  C6_7
    4  A    between atoms: C10_11  and  C11_12
    5  A    between atoms: C12_14  and  C13_15
    6  A    between atoms: C14_18  and  O4_19
    7  A    between atoms: O4_19  and  C15_20
    8  A    between atoms: C15_20  and  C16_21
                            x       y       z     vdW  Elec       q    Type
                         _______ _______ _______ _____ _____    ______ ____

> <TORSDO>
F 8

> <grid_id>
ptp1b-prepared

> <grid_path>
ptp1b_vina.pdbqt

> <grid_filename>
ptp1b_vina.pdbqt

> <docking_score>
-7.207

> <compound_name>
lig_23473

> <index_string>
1:0:3

> <s_m_Source_Path>
/projects/mai/users/kmzp800_harry/pmx_colab/docking_jobs

> <s_m_Source_File>
ptp1b_vina_mcs_confs.sdf

> <i_m_Source_File_Index>
2

> <s_m_entry_id>
1218

> <s_m_Source_Path>
/projects/mai/users/kmzp800_harry/pmx_colab/docking_jobs/ptp1b

> <s_m_Source_File>
ptp1b_confs_vina_mcs.sdf

> <i_m_Source_File_Index>
2

$$$$
lig_23472
                    3D
 Schrodinger Suite 2021-4.
 42 44  0  0  1  0            999 V2000
   42.4840    8.9950   16.7730 C   0  0  0  0  0  0
   42.8910   10.3210   16.5980 C   0  0  0  0  0  0
   41.9610   11.3200   16.2820 C   0  0  0  0  0  0
   40.6150   10.9580   16.1290 C   0  0  0  0  0  0
   40.1950    9.6330   16.3060 C   0  0  0  0  0  0
   41.1370    8.6530   16.6300 C   0  0  0  0  0  0
   42.3580   12.7360   16.0890 C   0  0  0  0  0  0
   43.3960   13.5510   17.1370 S   0  0  0  0  0  0
   43.4080   15.0140   16.3230 C   0  0  0  0  0  0
   42.5890   14.9060   15.2010 C   0  0  0  0  0  0
   42.0030   13.6190   15.0520 C   0  0  0  0  0  0
   40.9640   13.0850   13.5220 Br  0  0  0  0  0  0
   44.1650   16.2010   16.7520 C   0  0  0  0  0  0
   44.1080   16.5840   17.9500 O   0  5  0  0  0  0
   44.9460   16.9090   15.8470 O   0  0  0  0  0  0
   42.4170   16.0000   14.3400 O   0  0  0  0  0  0
   41.3160   16.8940   14.3790 C   0  0  0  0  0  0
   40.8250   17.1370   12.9970 C   0  0  0  0  0  0
   41.2660   16.4460   12.0430 O   0  0  0  0  0  0
   39.9120   18.1530   12.7540 O   0  5  0  0  0  0
   38.8200    9.2660   16.1710 N   0  0  0  0  0  0
   37.7130    9.1770   17.5040 S   0  0  0  0  0  0
   38.0970   10.2070   18.5290 O   0  0  0  0  0  0
   36.3220    9.4640   17.0160 O   0  0  0  0  0  0
   37.7490    7.5720   18.2150 C   0  0  0  0  0  0
   36.6240    7.0700   18.8800 C   0  0  0  0  0  0
   36.6660    5.8050   19.4730 C   0  0  0  0  0  0
   37.8330    5.0390   19.4020 C   0  0  0  0  0  0
   37.8750    3.8140   19.9770 F   0  0  0  0  0  0
   38.9570    5.5380   18.7380 C   0  0  0  0  0  0
   38.9160    6.8040   18.1450 C   0  0  0  0  0  0
   43.2244    8.2209   17.0233 H   0  0  0  0  0  0
   43.9535   10.5829   16.7097 H   0  0  0  0  0  0
   39.8753   11.7282   15.8652 H   0  0  0  0  0  0
   40.8173    7.6102   16.7727 H   0  0  0  0  0  0
   40.5084   16.4548   14.9830 H   0  0  0  0  0  0
   41.6334   17.8468   14.8279 H   0  0  0  0  0  0
   38.4667    9.0419   15.2298 H   0  0  0  0  0  0
   35.7052    7.6723   18.9359 H   0  0  0  0  0  0
   35.7811    5.4125   19.9953 H   0  0  0  0  0  0
   39.8749    4.9344   18.6817 H   0  0  0  0  0  0
   39.8017    7.1958   17.6234 H   0  0  0  0  0  0
  1  2  2  0  0  0
  1  6  1  0  0  0
  1 32  1  0  0  0
  2  3  1  0  0  0
  2 33  1  0  0  0
  3  4  2  0  0  0
  3  7  1  0  0  0
  4  5  1  0  0  0
  4 34  1  0  0  0
  5  6  2  0  0  0
  5 21  1  0  0  0
  6 35  1  0  0  0
  7  8  1  0  0  0
  7 11  2  0  0  0
  8  9  1  0  0  0
  9 13  1  0  0  0
  9 10  2  0  0  0
 10 11  1  0  0  0
 10 16  1  0  0  0
 11 12  1  0  0  0
 13 14  1  0  0  0
 13 15  2  0  0  0
 16 17  1  0  0  0
 17 18  1  0  0  0
 17 36  1  0  0  0
 17 37  1  0  0  0
 18 19  2  0  0  0
 18 20  1  0  0  0
 21 22  1  0  0  0
 21 38  1  0  0  0
 22 25  1  0  0  0
 22 23  2  0  0  0
 22 24  2  0  0  0
 25 26  2  0  0  0
 25 31  1  0  0  0
 26 27  1  0  0  0
 26 39  1  0  0  0
 27 28  2  0  0  0
 27 40  1  0  0  0
 28 29  1  0  0  0
 28 30  1  0  0  0
 30 31  2  0  0  0
 30 41  1  0  0  0
 31 42  1  0  0  0
M  CHG  2  14  -1  20  -1
M  END
> <s_m_entry_id>
1652

> <MODEL>
17

> <REMARK>
 VINA RESULT:    -6.322      2.766      3.072
 INTER + INTRA:         -10.417
 INTER:                  -9.764
 INTRA:                  -0.653
 UNBOUND:                -1.139
  Name = /scratch/kmzp800/tmpbh_nrxpm/tmpodznam4a.pdb
  8 active torsions:
  status: ('A' for Active; 'I' for Inactive)
    1  A    between atoms: C3_3  and  C4_4
    2  A    between atoms: C5_6  and  C6_7
    3  A    between atoms: C7_10  and  O3_11
    4  A    between atoms: O3_11  and  C8_12
    5  A    between atoms: C8_12  and  C9_13
    6  A    between atoms: C12_19  and  N1_20
    7  A    between atoms: N1_20  and  S2_21
    8  A    between atoms: S2_21  and  C13_24
                            x       y       z     vdW  Elec       q    Type
                         _______ _______ _______ _____ _____    ______ ____

> <TORSDO>
F 8

> <grid_id>
ptp1b-prepared

> <grid_path>
ptp1b_vina.pdbqt

> <grid_filename>
ptp1b_vina.pdbqt

> <docking_score>
-6.322

> <compound_name>
lig_23472

> <index_string>
2:0:16

> <s_m_Source_Path>
/projects/mai/users/kmzp800_harry/pmx_colab/docking_jobs

> <s_m_Source_File>
ptp1b_vina_mcs_confs.sdf

> <i_m_Source_File_Index>
3

> <s_m_entry_id>
1219

> <s_m_Source_Path>
/projects/mai/users/kmzp800_harry/pmx_colab/docking_jobs/ptp1b

> <s_m_Source_File>
ptp1b_confs_vina_mcs.sdf

> <i_m_Source_File_Index>
3

$$$$
lig_23483
                    3D
 Schrodinger Suite 2021-4.
 57 60  0  0  1  0            999 V2000
   41.2230    9.5130   18.0930 C   0  0  0  0  0  0
   42.1500    9.1970   19.0890 C   0  0  0  0  0  0
   43.2330   10.0470   19.3330 C   0  0  0  0  0  0
   43.3900   11.2120   18.5790 C   0  0  0  0  0  0
   42.4720   11.5430   17.5690 C   0  0  0  0  0  0
   41.3890   10.6830   17.3410 C   0  0  0  0  0  0
   42.6420   12.7980   16.7980 C   0  0  0  0  0  0
   43.4970   14.1310   17.3750 S   0  0  0  0  0  0
   43.2730   15.1150   16.0390 C   0  0  0  0  0  0
   42.5090   14.4240   15.1020 C   0  0  0  0  0  0
   42.1640   13.1100   15.5130 C   0  0  0  0  0  0
   41.2920   11.8380   14.3600 Br  0  0  0  0  0  0
   43.7950   16.4860   15.9190 C   0  0  0  0  0  0
   43.0100   17.4640   15.8010 O   0  0  0  0  0  0
   45.1660   16.7100   15.9360 O   0  5  0  0  0  0
   42.1570   15.0170   13.8800 O   0  0  0  0  0  0
   40.9430   15.7200   13.6500 C   0  0  0  0  0  0
   41.1790   16.8580   12.7190 C   0  0  0  0  0  0
   42.3300   17.3540   12.6090 O   0  5  0  0  0  0
   40.1370   17.3480   11.9440 O   0  0  0  0  0  0
   40.1210    8.6320   17.8560 N   0  0  0  0  0  0
   38.3480    6.7970   14.4370 N   0  0  2  0  0  0
   38.7360    5.9560   15.5790 C   0  0  0  0  0  0
   38.9460    6.7540   16.8650 C   0  0  0  0  0  0
   39.9560    7.8640   16.6300 C   0  0  0  0  0  0
   39.4480    8.7660   15.5160 C   0  0  0  0  0  0
   39.2350    7.9540   14.2400 C   0  0  0  0  0  0
   36.6680    7.2650   14.5070 S   0  0  0  0  0  0
   36.4580    8.4690   13.6310 O   0  0  0  0  0  0
   36.3260    7.6500   15.9200 O   0  0  0  0  0  0
   33.8230    3.9650   13.1620 C   0  0  0  0  0  0
   34.5110    4.7250   12.2110 C   0  0  0  0  0  0
   35.3820    5.7380   12.6240 C   0  0  0  0  0  0
   35.5730    5.9890   13.9870 C   0  0  0  0  0  0
   34.8740    5.2330   14.9370 C   0  0  0  0  0  0
   34.0040    4.2190   14.5250 C   0  0  0  0  0  0
   42.0279    8.2786   19.6819 H   0  0  0  0  0  0
   43.9614    9.7981   20.1188 H   0  0  0  0  0  0
   44.2424   11.8780   18.7785 H   0  0  0  0  0  0
   40.6570   10.9311   16.5583 H   0  0  0  0  0  0
   40.2043   15.0353   13.2078 H   0  0  0  0  0  0
   40.5660   16.1100   14.6070 H   0  0  0  0  0  0
   39.4065    8.5359   18.5916 H   0  0  0  0  0  0
   37.9431    5.2136   15.7528 H   0  0  0  0  0  0
   39.6955    5.4811   15.3265 H   0  0  0  0  0  0
   37.9886    7.1939   17.1809 H   0  0  0  0  0  0
   39.3250    6.0816   17.6487 H   0  0  0  0  0  0
   40.9272    7.4365   16.3403 H   0  0  0  0  0  0
   38.4940    9.2201   15.8219 H   0  0  0  0  0  0
   40.1917    9.5530   15.3223 H   0  0  0  0  0  0
   40.2120    7.5910   13.8882 H   0  0  0  0  0  0
   38.7543    8.6161   13.5048 H   0  0  0  0  0  0
   33.1390    3.1669   12.8376 H   0  0  0  0  0  0
   34.3671    4.5261   11.1387 H   0  0  0  0  0  0
   35.9185    6.3392   11.8751 H   0  0  0  0  0  0
   35.0099    5.4376   16.0092 H   0  0  0  0  0  0
   33.4622    3.6213   15.2728 H   0  0  0  0  0  0
  1  2  2  0  0  0
  1  6  1  0  0  0
  1 21  1  0  0  0
  2  3  1  0  0  0
  2 37  1  0  0  0
  3  4  2  0  0  0
  3 38  1  0  0  0
  4  5  1  0  0  0
  4 39  1  0  0  0
  5  6  2  0  0  0
  5  7  1  0  0  0
  6 40  1  0  0  0
  7  8  1  0  0  0
  7 11  2  0  0  0
  8  9  1  0  0  0
  9 10  2  0  0  0
  9 13  1  0  0  0
 10 11  1  0  0  0
 10 16  1  0  0  0
 11 12  1  0  0  0
 13 15  1  0  0  0
 13 14  2  0  0  0
 16 17  1  0  0  0
 17 18  1  0  0  0
 17 41  1  0  0  0
 17 42  1  0  0  0
 18 19  1  0  0  0
 18 20  2  0  0  0
 21 25  1  0  0  0
 21 43  1  0  0  0
 22 28  1  0  0  0
 22 23  1  0  0  0
 22 27  1  0  0  0
 23 24  1  0  0  0
 23 44  1  0  0  0
 23 45  1  0  0  0
 24 25  1  0  0  0
 24 46  1  0  0  0
 24 47  1  0  0  0
 25 26  1  0  0  0
 25 48  1  0  0  0
 26 27  1  0  0  0
 26 49  1  0  0  0
 26 50  1  0  0  0
 27 51  1  0  0  0
 27 52  1  0  0  0
 28 30  2  0  0  0
 28 29  2  0  0  0
 28 34  1  0  0  0
 31 36  2  0  0  0
 31 32  1  0  0  0
 31 53  1  0  0  0
 32 33  2  0  0  0
 32 54  1  0  0  0
 33 34  1  0  0  0
 33 55  1  0  0  0
 34 35  2  0  0  0
 35 36  1  0  0  0
 35 56  1  0  0  0
 36 57  1  0  0  0
M  CHG  2  15  -1  19  -1
M  END
> <s_m_entry_id>
1653

> <MODEL>
1

> <REMARK>
 VINA RESULT:    -8.965      0.000      0.000
 INTER + INTRA:         -12.862
 INTER:                 -12.437
 INTRA:                  -0.425
 UNBOUND:                 0.820
  Name = /scratch/kmzp800/tmpgzzpi43_/tmp5gr8fepm.pdb
  9 active torsions:
  status: ('A' for Active; 'I' for Inactive)
    1  A    between atoms: C4_4  and  S1_5
    2  A    between atoms: S1_5  and  N1_8
    3  A    between atoms: C7_11  and  N2_12
    4  A    between atoms: N2_12  and  C8_13
    5  A    between atoms: C12_17  and  C13_18
    6  A    between atoms: C14_20  and  C15_21
    7  A    between atoms: C16_24  and  O5_25
    8  A    between atoms: O5_25  and  C17_26
    9  A    between atoms: C17_26  and  C18_27
                            x       y       z     vdW  Elec       q    Type
                         _______ _______ _______ _____ _____    ______ ____

> <TORSDO>
F 9

> <grid_id>
ptp1b-prepared

> <grid_path>
ptp1b_vina.pdbqt

> <grid_filename>
ptp1b_vina.pdbqt

> <docking_score>
-8.965

> <compound_name>
lig_23483

> <index_string>
3:0:0

> <s_m_Source_Path>
/projects/mai/users/kmzp800_harry/pmx_colab/docking_jobs

> <s_m_Source_File>
ptp1b_vina_mcs_confs.sdf

> <i_m_Source_File_Index>
4

> <s_m_entry_id>
1220

> <s_m_Source_Path>
/projects/mai/users/kmzp800_harry/pmx_colab/docking_jobs/ptp1b

> <s_m_Source_File>
ptp1b_confs_vina_mcs.sdf

> <i_m_Source_File_Index>
4

$$$$
lig_23477
                    3D
 Schrodinger Suite 2021-4.
 43 45  0  0  1  0            999 V2000
   42.3120    9.0070   16.9210 C   0  0  0  0  0  0
   42.7350   10.3340   16.8040 C   0  0  0  0  0  0
   42.0140   11.2480   16.0250 C   0  0  0  0  0  0
   40.8500   10.8110   15.3760 C   0  0  0  0  0  0
   40.4170    9.4820   15.4890 C   0  0  0  0  0  0
   41.1560    8.5820   16.2630 C   0  0  0  0  0  0
   42.4270   12.6660   15.9070 C   0  0  0  0  0  0
   43.4050   13.4440   17.0380 S   0  0  0  0  0  0
   43.4400   14.9410   16.2850 C   0  0  0  0  0  0
   42.6870   14.8660   15.1160 C   0  0  0  0  0  0
   42.0980   13.5940   14.9030 C   0  0  0  0  0  0
   40.8260   13.2340   13.5040 Br  0  0  0  0  0  0
   44.1690   16.1150   16.7890 C   0  0  0  0  0  0
   44.9280   16.7620   16.0220 O   0  0  0  0  0  0
   44.0310   16.5200   18.1110 O   0  5  0  0  0  0
   42.5450   15.9810   14.2760 O   0  0  0  0  0  0
   41.5130   16.9500   14.4000 C   0  0  0  0  0  0
   40.9670   17.2930   13.0560 C   0  0  0  0  0  0
   40.3080   18.3510   12.8970 O   0  5  0  0  0  0
   41.2230   16.4660   11.9700 O   0  0  0  0  0  0
   39.2350    9.0270   14.8250 N   0  0  0  0  0  0
   38.9470    7.6220   14.5690 C   0  0  0  0  0  0
   37.4370    7.4090   14.5220 C   0  0  0  0  0  0
   37.1500    5.9850   14.0450 C   0  0  0  0  0  0
   37.6870    5.7920   12.7590 O   0  0  0  0  0  0
   39.0880    5.7820   12.9000 C   0  0  0  0  0  0
   39.5860    7.1840   13.2510 C   0  0  0  0  0  0
   42.8898    8.2974   17.5314 H   0  0  0  0  0  0
   43.6435   10.6640   17.3291 H   0  0  0  0  0  0
   40.2684   11.5209   14.7696 H   0  0  0  0  0  0
   40.8259    7.5366   16.3538 H   0  0  0  0  0  0
   40.7061   16.5436   15.0275 H   0  0  0  0  0  0
   41.9262   17.8583   14.8628 H   0  0  0  0  0  0
   38.5508    9.7300   14.5110 H   0  0  0  0  0  0
   39.3705    7.0126   15.3810 H   0  0  0  0  0  0
   37.0126    7.5541   15.5264 H   0  0  0  0  0  0
   36.9810    8.1320   13.8296 H   0  0  0  0  0  0
   37.6075    5.2678   14.7424 H   0  0  0  0  0  0
   36.0618    5.8279   14.0097 H   0  0  0  0  0  0
   39.3688    5.0838   13.7023 H   0  0  0  0  0  0
   39.5450    5.4624   11.9518 H   0  0  0  0  0  0
   39.3041    7.8864   12.4528 H   0  0  0  0  0  0
   40.6812    7.1753   13.3530 H   0  0  0  0  0  0
  1  2  2  0  0  0
  1  6  1  0  0  0
  1 28  1  0  0  0
  2  3  1  0  0  0
  2 29  1  0  0  0
  3  4  2  0  0  0
  3  7  1  0  0  0
  4  5  1  0  0  0
  4 30  1  0  0  0
  5  6  2  0  0  0
  5 21  1  0  0  0
  6 31  1  0  0  0
  7  8  1  0  0  0
  7 11  2  0  0  0
  8  9  1  0  0  0
  9 13  1  0  0  0
  9 10  2  0  0  0
 10 11  1  0  0  0
 10 16  1  0  0  0
 11 12  1  0  0  0
 13 15  1  0  0  0
 13 14  2  0  0  0
 16 17  1  0  0  0
 17 18  1  0  0  0
 17 32  1  0  0  0
 17 33  1  0  0  0
 18 19  1  0  0  0
 18 20  2  0  0  0
 21 22  1  0  0  0
 21 34  1  0  0  0
 22 23  1  0  0  0
 22 27  1  0  0  0
 22 35  1  0  0  0
 23 24  1  0  0  0
 23 36  1  0  0  0
 23 37  1  0  0  0
 24 25  1  0  0  0
 24 38  1  0  0  0
 24 39  1  0  0  0
 25 26  1  0  0  0
 26 27  1  0  0  0
 26 40  1  0  0  0
 26 41  1  0  0  0
 27 42  1  0  0  0
 27 43  1  0  0  0
M  CHG  2  15  -1  19  -1
M  END
> <s_m_entry_id>
1654

> <MODEL>
1

> <REMARK>
 VINA RESULT:    -7.255      0.000      0.000
 INTER + INTRA:         -10.885
 INTER:                 -10.585
 INTRA:                  -0.300
 UNBOUND:                -0.661
  Name = /scratch/kmzp800/tmpp4wsgnl5/tmpuwadwikj.pdb
  7 active torsions:
  status: ('A' for Active; 'I' for Inactive)
    1  A    between atoms: C3_3  and  C4_4
    2  A    between atoms: C5_6  and  C6_7
    3  A    between atoms: C7_10  and  O3_11
    4  A    between atoms: O3_11  and  C8_12
    5  A    between atoms: C8_12  and  C9_13
    6  A    between atoms: C12_19  and  N1_20
    7  A    between atoms: N1_20  and  C13_21
                            x       y       z     vdW  Elec       q    Type
                         _______ _______ _______ _____ _____    ______ ____

> <TORSDO>
F 7

> <grid_id>
ptp1b-prepared

> <grid_path>
ptp1b_vina.pdbqt

> <grid_filename>
ptp1b_vina.pdbqt

> <docking_score>
-7.255

> <compound_name>
lig_23477

> <index_string>
4:0:0

> <s_m_Source_Path>
/projects/mai/users/kmzp800_harry/pmx_colab/docking_jobs

> <s_m_Source_File>
ptp1b_vina_mcs_confs.sdf

> <i_m_Source_File_Index>
5

> <s_m_entry_id>
1221

> <s_m_Source_Path>
/projects/mai/users/kmzp800_harry/pmx_colab/docking_jobs/ptp1b

> <s_m_Source_File>
ptp1b_confs_vina_mcs.sdf

> <i_m_Source_File_Index>
5

$$$$
lig_23482
                    3D
 Schrodinger Suite 2021-4.
 50 52  0  0  1  0            999 V2000
   42.5000    8.8580   16.9660 C   0  0  0  0  0  0
   42.8920   10.1820   16.7570 C   0  0  0  0  0  0
   41.9360   11.1980   16.6000 C   0  0  0  0  0  0
   40.5790   10.8550   16.6550 C   0  0  0  0  0  0
   40.1750    9.5290   16.8680 C   0  0  0  0  0  0
   41.1420    8.5330   17.0200 C   0  0  0  0  0  0
   42.3770   12.5960   16.3780 C   0  0  0  0  0  0
   43.2990   13.4750   17.4820 S   0  0  0  0  0  0
   43.4100   14.8960   16.5950 C   0  0  0  0  0  0
   42.6950   14.7120   15.4040 C   0  0  0  0  0  0
   42.1390   13.4280   15.2710 C   0  0  0  0  0  0
   41.1100   12.9620   13.7190 Br  0  0  0  0  0  0
   44.2400   16.0420   16.9980 C   0  0  0  0  0  0
   44.9610   16.6220   16.1440 O   0  0  0  0  0  0
   44.1910   16.5400   18.2920 O   0  5  0  0  0  0
   42.4920   15.6880   14.4200 O   0  0  0  0  0  0
   41.6680   16.8320   14.6090 C   0  0  0  0  0  0
   40.8340   17.0740   13.3990 C   0  0  0  0  0  0
   39.5810   16.9900   13.4700 O   0  5  0  0  0  0
   41.4380   17.4340   12.2010 O   0  0  0  0  0  0
   38.7900    9.1780   16.9240 N   0  0  0  0  0  0
   38.0330    8.7150   15.7700 C   0  0  0  0  0  0
   37.1780    7.5170   16.1560 C   0  0  0  0  0  0
   36.4050    7.0190   14.9350 C   0  0  0  0  0  0
   37.2810    6.7010   13.7960 N   0  0  1  0  0  0
   38.2070    7.7930   13.4600 C   0  0  0  0  0  0
   38.9920    8.3000   14.6690 C   0  0  0  0  0  0
   38.1210    5.1920   14.0310 S   0  0  0  0  0  0
   37.2510    4.2620   14.8300 O   0  0  0  0  0  0
   39.3890    5.4480   14.7980 O   0  0  0  0  0  0
   38.5380    4.3990   12.4920 C   0  0  0  0  0  0
   43.2595    8.0717   17.0880 H   0  0  0  0  0  0
   43.9625   10.4317   16.7149 H   0  0  0  0  0  0
   39.8175   11.6388   16.5290 H   0  0  0  0  0  0
   40.8338    7.4897   17.1827 H   0  0  0  0  0  0
   41.0109   16.6667   15.4755 H   0  0  0  0  0  0
   42.3083   17.7092   14.7835 H   0  0  0  0  0  0
   38.3026    9.2569   17.8279 H   0  0  0  0  0  0
   37.3850    9.5309   15.4173 H   0  0  0  0  0  0
   37.8261    6.7115   16.5317 H   0  0  0  0  0  0
   36.4664    7.8156   16.9399 H   0  0  0  0  0  0
   35.8507    6.1114   15.2162 H   0  0  0  0  0  0
   35.7301    7.8277   14.6180 H   0  0  0  0  0  0
   38.9203    7.4288   12.7059 H   0  0  0  0  0  0
   37.6046    8.6322   13.0820 H   0  0  0  0  0  0
   39.6020    9.1656   14.3711 H   0  0  0  0  0  0
   39.6443    7.4960   15.0406 H   0  0  0  0  0  0
   39.0410    3.4424   12.6969 H   0  0  0  0  0  0
   37.6204    4.2143   11.9142 H   0  0  0  0  0  0
   39.2102    5.0504   11.9142 H   0  0  0  0  0  0
  1  6  2  0  0  0
  1  2  1  0  0  0
  1 32  1  0  0  0
  2  3  2  0  0  0
  2 33  1  0  0  0
  3  4  1  0  0  0
  3  7  1  0  0  0
  4  5  2  0  0  0
  4 34  1  0  0  0
  5 21  1  0  0  0
  5  6  1  0  0  0
  6 35  1  0  0  0
  7  8  1  0  0  0
  7 11  2  0  0  0
  8  9  1  0  0  0
  9 13  1  0  0  0
  9 10  2  0  0  0
 10 11  1  0  0  0
 10 16  1  0  0  0
 11 12  1  0  0  0
 13 15  1  0  0  0
 13 14  2  0  0  0
 16 17  1  0  0  0
 17 18  1  0  0  0
 17 36  1  0  0  0
 17 37  1  0  0  0
 18 19  1  0  0  0
 18 20  2  0  0  0
 21 22  1  0  0  0
 21 38  1  0  0  0
 22 23  1  0  0  0
 22 27  1  0  0  0
 22 39  1  0  0  0
 23 24  1  0  0  0
 23 40  1  0  0  0
 23 41  1  0  0  0
 24 25  1  0  0  0
 24 42  1  0  0  0
 24 43  1  0  0  0
 25 28  1  0  0  0
 25 26  1  0  0  0
 26 27  1  0  0  0
 26 44  1  0  0  0
 26 45  1  0  0  0
 27 46  1  0  0  0
 27 47  1  0  0  0
 28 30  2  0  0  0
 28 29  2  0  0  0
 28 31  1  0  0  0
 31 48  1  0  0  0
 31 49  1  0  0  0
 31 50  1  0  0  0
M  CHG  2  15  -1  19  -1
M  END
> <s_m_entry_id>
1655

> <MODEL>
4

> <REMARK>
 VINA RESULT:    -7.202      1.478      1.947
 INTER + INTRA:         -11.031
 INTER:                 -10.667
 INTRA:                  -0.365
 UNBOUND:                -0.461
  Name = /scratch/kmzp800/tmpxx8z9bjc/tmp1se9nl1j.pdb
  9 active torsions:
  status: ('A' for Active; 'I' for Inactive)
    1  A    between atoms: C3_3  and  C4_4
    2  A    between atoms: C5_6  and  C6_7
    3  A    between atoms: C7_10  and  O3_11
    4  A    between atoms: O3_11  and  C8_12
    5  A    between atoms: C8_12  and  C9_13
    6  A    between atoms: C12_19  and  N1_20
    7  A    between atoms: N1_20  and  C13_21
    8  A    between atoms: N2_24  and  S2_25
    9  A    between atoms: S2_25  and  C16_28
                            x       y       z     vdW  Elec       q    Type
                         _______ _______ _______ _____ _____    ______ ____

> <TORSDO>
F 8

> <grid_id>
ptp1b-prepared

> <grid_path>
ptp1b_vina.pdbqt

> <grid_filename>
ptp1b_vina.pdbqt

> <docking_score>
-7.202

> <compound_name>
lig_23482

> <index_string>
5:0:3

> <s_m_Source_Path>
/projects/mai/users/kmzp800_harry/pmx_colab/docking_jobs

> <s_m_Source_File>
ptp1b_vina_mcs_confs.sdf

> <i_m_Source_File_Index>
6

> <s_m_entry_id>
1222

> <s_m_Source_Path>
/projects/mai/users/kmzp800_harry/pmx_colab/docking_jobs/ptp1b

> <s_m_Source_File>
ptp1b_confs_vina_mcs.sdf

> <i_m_Source_File_Index>
6

$$$$
lig_23476
                    3D
 Schrodinger Suite 2021-4.
 48 50  0  0  1  0            999 V2000
   43.2750    9.2070   17.7090 C   0  0  0  0  0  0
   43.4420   10.4860   17.1740 C   0  0  0  0  0  0
   42.3370   11.3230   16.9560 C   0  0  0  0  0  0
   41.0590   10.8430   17.2750 C   0  0  0  0  0  0
   40.8810    9.5590   17.8110 C   0  0  0  0  0  0
   41.9960    8.7450   18.0260 C   0  0  0  0  0  0
   42.5400   12.6660   16.3590 C   0  0  0  0  0  0
   43.4440   13.8780   17.1030 S   0  0  0  0  0  0
   43.2490   15.0430   15.9150 C   0  0  0  0  0  0
   42.4710   14.5090   14.8910 C   0  0  0  0  0  0
   42.0520   13.1720   15.1390 C   0  0  0  0  0  0
   40.8270   12.2060   14.0120 Br  0  0  0  0  0  0
   43.8290   16.3940   15.9670 C   0  0  0  0  0  0
   45.0270   16.5520   16.3200 O   0  5  0  0  0  0
   43.0670   17.5060   15.6290 O   0  0  0  0  0  0
   42.1580   15.2770   13.7610 O   0  0  0  0  0  0
   40.8630   15.7650   13.4480 C   0  0  0  0  0  0
   40.9780   17.0790   12.7630 C   0  0  0  0  0  0
   42.0330   17.3780   12.1470 O   0  0  0  0  0  0
   39.9370   17.9950   12.8410 O   0  5  0  0  0  0
   39.5780    9.0590   18.1410 N   0  0  0  0  0  0
   38.7840    8.1580   17.3090 C   0  0  0  0  0  0
   39.0880    6.6920   17.6510 C   0  0  0  0  0  0
   38.5580    5.6780   16.6340 C   0  0  0  0  0  0
   37.0730    5.8600   16.3000 C   0  0  0  0  0  0
   36.7320    7.2010   15.6310 C   0  0  0  0  0  0
   37.9200    7.8220   14.8920 C   0  0  0  0  0  0
   38.9190    8.5280   15.8240 C   0  0  0  0  0  0
   44.1506    8.5637   17.8806 H   0  0  0  0  0  0
   44.4516   10.8416   16.9205 H   0  0  0  0  0  0
   40.1817   11.4836   17.1022 H   0  0  0  0  0  0
   41.8659    7.7369   18.4464 H   0  0  0  0  0  0
   40.3525   15.0503   12.7858 H   0  0  0  0  0  0
   40.2839   15.8857   14.3754 H   0  0  0  0  0  0
   39.1688    9.3595   19.0372 H   0  0  0  0  0  0
   37.7145    8.2831   17.5339 H   0  0  0  0  0  0
   40.1797    6.5741   17.7163 H   0  0  0  0  0  0
   38.5739    6.4799   18.6001 H   0  0  0  0  0  0
   39.1382    5.7817   15.7053 H   0  0  0  0  0  0
   38.6662    4.6814   17.0869 H   0  0  0  0  0  0
   36.7716    5.0498   15.6197 H   0  0  0  0  0  0
   36.5314    5.8402   17.2572 H   0  0  0  0  0  0
   35.9184    7.0355   14.9094 H   0  0  0  0  0  0
   36.4393    7.9004   16.4280 H   0  0  0  0  0  0
   38.4509    7.0237   14.3527 H   0  0  0  0  0  0
   37.5154    8.5860   14.2119 H   0  0  0  0  0  0
   38.7701    9.6135   15.7265 H   0  0  0  0  0  0
   39.9210    8.1986   15.5118 H   0  0  0  0  0  0
  1  6  2  0  0  0
  1  2  1  0  0  0
  1 29  1  0  0  0
  2  3  2  0  0  0
  2 30  1  0  0  0
  3  4  1  0  0  0
  3  7  1  0  0  0
  4  5  2  0  0  0
  4 31  1  0  0  0
  5  6  1  0  0  0
  5 21  1  0  0  0
  6 32  1  0  0  0
  7  8  1  0  0  0
  7 11  2  0  0  0
  8  9  1  0  0  0
  9 13  1  0  0  0
  9 10  2  0  0  0
 10 11  1  0  0  0
 10 16  1  0  0  0
 11 12  1  0  0  0
 13 14  1  0  0  0
 13 15  2  0  0  0
 16 17  1  0  0  0
 17 18  1  0  0  0
 17 33  1  0  0  0
 17 34  1  0  0  0
 18 20  1  0  0  0
 18 19  2  0  0  0
 21 22  1  0  0  0
 21 35  1  0  0  0
 22 23  1  0  0  0
 22 28  1  0  0  0
 22 36  1  0  0  0
 23 24  1  0  0  0
 23 37  1  0  0  0
 23 38  1  0  0  0
 24 25  1  0  0  0
 24 39  1  0  0  0
 24 40  1  0  0  0
 25 26  1  0  0  0
 25 41  1  0  0  0
 25 42  1  0  0  0
 26 27  1  0  0  0
 26 43  1  0  0  0
 26 44  1  0  0  0
 27 28  1  0  0  0
 27 45  1  0  0  0
 27 46  1  0  0  0
 28 47  1  0  0  0
 28 48  1  0  0  0
M  CHG  2  14  -1  20  -1
M  END
> <s_m_entry_id>
1656

> <MODEL>
10

> <REMARK>
 VINA RESULT:    -6.319      1.660      2.189
 INTER + INTRA:          -9.833
 INTER:                  -9.021
 INTRA:                  -0.811
 UNBOUND:                -0.928
  Name = /scratch/kmzp800/tmphkhmfemm/tmplw9afh43.pdb
  7 active torsions:
  status: ('A' for Active; 'I' for Inactive)
    1  A    between atoms: C3_3  and  C4_4
    2  A    between atoms: C5_6  and  C6_7
    3  A    between atoms: C7_10  and  O3_11
    4  A    between atoms: O3_11  and  C8_12
    5  A    between atoms: C8_12  and  C9_13
    6  A    between atoms: C12_19  and  N1_20
    7  A    between atoms: N1_20  and  C13_21
                            x       y       z     vdW  Elec       q    Type
                         _______ _______ _______ _____ _____    ______ ____

> <TORSDO>
F 7

> <grid_id>
ptp1b-prepared

> <grid_path>
ptp1b_vina.pdbqt

> <grid_filename>
ptp1b_vina.pdbqt

> <docking_score>
-6.319

> <compound_name>
lig_23476

> <index_string>
6:0:9

> <s_m_Source_Path>
/projects/mai/users/kmzp800_harry/pmx_colab/docking_jobs

> <s_m_Source_File>
ptp1b_vina_mcs_confs.sdf

> <i_m_Source_File_Index>
7

> <s_m_entry_id>
1223

> <s_m_Source_Path>
/projects/mai/users/kmzp800_harry/pmx_colab/docking_jobs/ptp1b

> <s_m_Source_File>
ptp1b_confs_vina_mcs.sdf

> <i_m_Source_File_Index>
7

$$$$
lig_23479
                    3D
 Schrodinger Suite 2021-4.
 49 51  0  0  1  0            999 V2000
   42.1930    9.0890   16.9800 C   0  0  0  0  0  0
   42.6340   10.4090   16.8440 C   0  0  0  0  0  0
   41.9630   11.3020   15.9970 C   0  0  0  0  0  0
   40.8340   10.8490   15.3030 C   0  0  0  0  0  0
   40.3820    9.5270   15.4330 C   0  0  0  0  0  0
   41.0700    8.6500   16.2730 C   0  0  0  0  0  0
   42.3900   12.7130   15.8410 C   0  0  0  0  0  0
   43.3770   13.5070   16.9540 S   0  0  0  0  0  0
   43.4210   14.9880   16.1730 C   0  0  0  0  0  0
   42.6660   14.8970   15.0060 C   0  0  0  0  0  0
   42.0670   13.6240   14.8190 C   0  0  0  0  0  0
   40.8020   13.2460   13.4200 Br  0  0  0  0  0  0
   44.1570   16.1670   16.6570 C   0  0  0  0  0  0
   44.8880   16.8200   15.8670 O   0  0  0  0  0  0
   44.0540   16.5730   17.9810 O   0  5  0  0  0  0
   42.5320   15.9950   14.1450 O   0  0  0  0  0  0
   41.5630   17.0230   14.3020 C   0  0  0  0  0  0
   40.6520   17.0540   13.1240 C   0  0  0  0  0  0
   39.4110   16.9280   13.2860 O   0  5  0  0  0  0
   41.1660   17.2660   11.8520 O   0  0  0  0  0  0
   39.2270    9.0630   14.7200 N   0  0  0  0  0  0
   38.7060    7.6980   14.7680 C   0  0  0  0  0  0
   37.2440    7.7010   15.2350 C   0  0  0  0  0  0
   36.6710    6.2880   15.2200 C   0  0  0  0  0  0
   36.8860    5.6980   13.9030 N   0  0  0  0  0  0
   35.7770    5.4100   13.0390 C   0  0  0  0  0  0
   34.5960    5.5730   13.4470 O   0  0  0  0  0  0
   35.9950    4.9170   11.6490 C   0  0  0  0  0  0
   38.2620    5.6140   13.4260 C   0  0  0  0  0  0
   38.8710    7.0130   13.4050 C   0  0  0  0  0  0
   42.7302    8.3957   17.6438 H   0  0  0  0  0  0
   43.5155   10.7498   17.4068 H   0  0  0  0  0  0
   40.2915   11.5425   14.6437 H   0  0  0  0  0  0
   40.7274    7.6101   16.3790 H   0  0  0  0  0  0
   40.9747   16.8322   15.2116 H   0  0  0  0  0  0
   42.0771   17.9920   14.3843 H   0  0  0  0  0  0
   38.7270    9.7430   14.1296 H   0  0  0  0  0  0
   39.2860    7.1172   15.5003 H   0  0  0  0  0  0
   37.1926    8.1007   16.2585 H   0  0  0  0  0  0
   36.6551    8.3289   14.5503 H   0  0  0  0  0  0
   37.1759    5.6779   15.9835 H   0  0  0  0  0  0
   35.5934    6.3235   15.4380 H   0  0  0  0  0  0
   36.4397    3.9114   11.6821 H   0  0  0  0  0  0
   35.0317    4.8747   11.1196 H   0  0  0  0  0  0
   36.6745    5.6011   11.1196 H   0  0  0  0  0  0
   38.8459    4.9684   14.0985 H   0  0  0  0  0  0
   38.2766    5.1889   12.4116 H   0  0  0  0  0  0
   38.3660    7.6149   12.6351 H   0  0  0  0  0  0
   39.9444    6.9276   13.1803 H   0  0  0  0  0  0
  1  2  2  0  0  0
  1  6  1  0  0  0
  1 31  1  0  0  0
  2  3  1  0  0  0
  2 32  1  0  0  0
  3  4  2  0  0  0
  3  7  1  0  0  0
  4  5  1  0  0  0
  4 33  1  0  0  0
  5  6  2  0  0  0
  5 21  1  0  0  0
  6 34  1  0  0  0
  7  8  1  0  0  0
  7 11  2  0  0  0
  8  9  1  0  0  0
  9 13  1  0  0  0
  9 10  2  0  0  0
 10 11  1  0  0  0
 10 16  1  0  0  0
 11 12  1  0  0  0
 13 15  1  0  0  0
 13 14  2  0  0  0
 16 17  1  0  0  0
 17 18  1  0  0  0
 17 35  1  0  0  0
 17 36  1  0  0  0
 18 19  1  0  0  0
 18 20  2  0  0  0
 21 22  1  0  0  0
 21 37  1  0  0  0
 22 23  1  0  0  0
 22 30  1  0  0  0
 22 38  1  0  0  0
 23 24  1  0  0  0
 23 39  1  0  0  0
 23 40  1  0  0  0
 24 25  1  0  0  0
 24 41  1  0  0  0
 24 42  1  0  0  0
 25 26  1  0  0  0
 25 29  1  0  0  0
 26 27  2  0  0  0
 26 28  1  0  0  0
 28 43  1  0  0  0
 28 44  1  0  0  0
 28 45  1  0  0  0
 29 30  1  0  0  0
 29 46  1  0  0  0
 29 47  1  0  0  0
 30 48  1  0  0  0
 30 49  1  0  0  0
M  CHG  2  15  -1  19  -1
M  END
> <s_m_entry_id>
1657

> <MODEL>
1

> <REMARK>
 VINA RESULT:    -7.737      0.000      0.000
 INTER + INTRA:         -11.683
 INTER:                 -11.394
 INTRA:                  -0.289
 UNBOUND:                -0.779
  Name = /scratch/kmzp800/tmpwujn0qa0/tmp3zq7w6od.pdb
  8 active torsions:
  status: ('A' for Active; 'I' for Inactive)
    1  A    between atoms: C3_3  and  C4_4
    2  A    between atoms: C5_6  and  C6_7
    3  A    between atoms: C7_10  and  O3_11
    4  A    between atoms: O3_11  and  C8_12
    5  A    between atoms: C8_12  and  C9_13
    6  A    between atoms: C12_19  and  N1_20
    7  A    between atoms: N1_20  and  C13_21
    8  A    between atoms: C16_25  and  C17_27
                            x       y       z     vdW  Elec       q    Type
                         _______ _______ _______ _____ _____    ______ ____

> <TORSDO>
F 7

> <grid_id>
ptp1b-prepared

> <grid_path>
ptp1b_vina.pdbqt

> <grid_filename>
ptp1b_vina.pdbqt

> <docking_score>
-7.737

> <compound_name>
lig_23479

> <index_string>
7:0:0

> <s_m_Source_Path>
/projects/mai/users/kmzp800_harry/pmx_colab/docking_jobs

> <s_m_Source_File>
ptp1b_vina_mcs_confs.sdf

> <i_m_Source_File_Index>
8

> <s_m_entry_id>
1224

> <s_m_Source_Path>
/projects/mai/users/kmzp800_harry/pmx_colab/docking_jobs/ptp1b

> <s_m_Source_File>
ptp1b_confs_vina_mcs.sdf

> <i_m_Source_File_Index>
8

$$$$
lig_23469
                    3D
 Schrodinger Suite 2021-4.
 41 43  0  0  1  0            999 V2000
   40.3930    9.4600   15.5730 C   0  0  0  0  0  0
   41.2000    8.6300   16.3570 C   0  0  0  0  0  0
   42.3560    9.1310   16.9570 C   0  0  0  0  0  0
   42.7140   10.4690   16.7710 C   0  0  0  0  0  0
   41.9260   11.3160   15.9800 C   0  0  0  0  0  0
   40.7640   10.8010   15.3900 C   0  0  0  0  0  0
   42.3210   12.7350   15.8100 C   0  0  0  0  0  0
   43.3310   13.5610   16.8770 S   0  0  0  0  0  0
   43.3300   15.0380   16.0800 C   0  0  0  0  0  0
   42.5110   14.9120   14.9480 C   0  0  0  0  0  0
   41.9690   13.6260   14.7860 C   0  0  0  0  0  0
   40.8720   13.2060   13.2700 Br  0  0  0  0  0  0
   44.1750   16.1730   16.4850 C   0  0  0  0  0  0
   44.7070   16.9240   15.6280 O   0  0  0  0  0  0
   44.4430   16.3840   17.8320 O   0  5  0  0  0  0
   42.2100   15.9380   14.0430 O   0  0  0  0  0  0
   41.1410   16.8590   14.2280 C   0  0  0  0  0  0
   40.4490   17.1160   12.9340 C   0  0  0  0  0  0
   39.2050   17.3040   12.9130 O   0  5  0  0  0  0
   41.1820   17.1930   11.7580 O   0  0  0  0  0  0
   39.1530    7.8260   14.0310 C   0  0  0  0  0  0
   40.2090    7.3070   13.5800 O   0  0  0  0  0  0
   39.2130    8.9060   14.9740 N   0  0  0  0  0  0
   35.3470    6.3850   12.7030 C   0  0  0  0  0  0
   36.3610    5.4800   13.0300 C   0  0  0  0  0  0
   37.6050    5.9510   13.4620 C   0  0  0  0  0  0
   37.8430    7.3300   13.5730 C   0  0  0  0  0  0
   36.8190    8.2300   13.2430 C   0  0  0  0  0  0
   35.5760    7.7590   12.8100 C   0  0  0  0  0  0
   40.9220    7.5756   16.5017 H   0  0  0  0  0  0
   42.9846    8.4736   17.5756 H   0  0  0  0  0  0
   43.6232   10.8612   17.2501 H   0  0  0  0  0  0
   40.1328   11.4581   14.7738 H   0  0  0  0  0  0
   40.4217   16.4401   14.9471 H   0  0  0  0  0  0
   41.5479   17.8068   14.6101 H   0  0  0  0  0  0
   38.3146    9.3277   15.2497 H   0  0  0  0  0  0
   34.3689    6.0153   12.3615 H   0  0  0  0  0  0
   36.1806    4.3980   12.9476 H   0  0  0  0  0  0
   38.4018    5.2365   13.7163 H   0  0  0  0  0  0
   36.9950    9.3127   13.3254 H   0  0  0  0  0  0
   34.7776    8.4708   12.5533 H   0  0  0  0  0  0
  1  2  2  0  0  0
  1  6  1  0  0  0
  1 23  1  0  0  0
  2  3  1  0  0  0
  2 30  1  0  0  0
  3  4  2  0  0  0
  3 31  1  0  0  0
  4  5  1  0  0  0
  4 32  1  0  0  0
  5  6  2  0  0  0
  5  7  1  0  0  0
  6 33  1  0  0  0
  7  8  1  0  0  0
  7 11  2  0  0  0
  8  9  1  0  0  0
  9 13  1  0  0  0
  9 10  2  0  0  0
 10 11  1  0  0  0
 10 16  1  0  0  0
 11 12  1  0  0  0
 13 15  1  0  0  0
 13 14  2  0  0  0
 16 17  1  0  0  0
 17 18  1  0  0  0
 17 34  1  0  0  0
 17 35  1  0  0  0
 18 19  1  0  0  0
 18 20  2  0  0  0
 21 23  1  0  0  0
 21 22  2  0  0  0
 21 27  1  0  0  0
 23 36  1  0  0  0
 24 29  2  0  0  0
 24 25  1  0  0  0
 24 37  1  0  0  0
 25 26  2  0  0  0
 25 38  1  0  0  0
 26 27  1  0  0  0
 26 39  1  0  0  0
 27 28  2  0  0  0
 28 29  1  0  0  0
 28 40  1  0  0  0
 29 41  1  0  0  0
M  CHG  2  15  -1  19  -1
M  END
> <s_m_entry_id>
1658

> <MODEL>
1

> <REMARK>
 VINA RESULT:   -24.688      0.000      0.000
 INTER + INTRA:         -12.030
 INTER:                 -11.667
 INTRA:                  -0.363
 UNBOUND:                22.761
  Name = /scratch/kmzp800/tmpm7gpx9qd/tmpqp2hbyj3.pdb
  7 active torsions:
  status: ('A' for Active; 'I' for Inactive)
    1  A    between atoms: C4_4  and  C5_5
    2  A    between atoms: N1_7  and  C6_8
    3  A    between atoms: C10_12  and  C11_13
    4  A    between atoms: C12_15  and  C13_16
    5  A    between atoms: C14_19  and  O4_20
    6  A    between atoms: O4_20  and  C15_21
    7  A    between atoms: C15_21  and  C16_22
                            x       y       z     vdW  Elec       q    Type
                         _______ _______ _______ _____ _____    ______ ____

> <TORSDO>
F 7

> <grid_id>
ptp1b-prepared

> <grid_path>
ptp1b_vina.pdbqt

> <grid_filename>
ptp1b_vina.pdbqt

> <docking_score>
-24.688

> <compound_name>
lig_23469

> <index_string>
8:0:0

> <s_m_Source_Path>
/projects/mai/users/kmzp800_harry/pmx_colab/docking_jobs

> <s_m_Source_File>
ptp1b_vina_mcs_confs.sdf

> <i_m_Source_File_Index>
9

> <s_m_entry_id>
1225

> <s_m_Source_Path>
/projects/mai/users/kmzp800_harry/pmx_colab/docking_jobs/ptp1b

> <s_m_Source_File>
ptp1b_confs_vina_mcs.sdf

> <i_m_Source_File_Index>
9

$$$$
lig_23471
                    3D
 Schrodinger Suite 2021-4.
 35 36  0  0  1  0            999 V2000
   42.3270   12.8530   15.7170 C   0  0  0  0  0  0
   43.3960   13.7170   16.6890 S   0  0  0  0  0  0
   43.2900   15.1730   15.8670 C   0  0  0  0  0  0
   42.4040   15.0210   14.8020 C   0  0  0  0  0  0
   41.8660   13.7100   14.7010 C   0  0  0  0  0  0
   40.7630   13.1080   13.2430 Br  0  0  0  0  0  0
   42.5260    9.2210   16.8130 C   0  0  0  0  0  0
   42.8570   10.5650   16.6300 C   0  0  0  0  0  0
   41.9880   11.4280   15.9490 C   0  0  0  0  0  0
   40.7860   10.9120   15.4410 C   0  0  0  0  0  0
   40.4450    9.5630   15.6200 C   0  0  0  0  0  0
   41.3220    8.7230   16.3110 C   0  0  0  0  0  0
   39.2190    9.0170   15.1140 N   0  0  0  0  0  0
   37.9650    8.9360   15.8030 C   0  0  0  0  0  0
   37.8450    9.3710   16.9810 O   0  0  0  0  0  0
   36.8730    8.3680   15.1480 O   0  0  0  0  0  0
   36.9830    7.8220   13.8410 C   0  0  0  0  0  0
   44.0200   16.3960   16.2380 C   0  0  0  0  0  0
   44.5510   16.4920   17.3750 O   0  5  0  0  0  0
   44.1290   17.4550   15.3450 O   0  0  0  0  0  0
   42.1300   16.0980   13.9460 O   0  0  0  0  0  0
   41.0260   16.9780   14.0860 C   0  0  0  0  0  0
   40.3910   17.1930   12.7600 C   0  0  0  0  0  0
   41.1010   17.2370   11.7220 O   0  0  0  0  0  0
   39.0110   17.3020   12.6600 O   0  5  0  0  0  0
   43.2142    8.5540   17.3530 H   0  0  0  0  0  0
   43.8090   10.9501   17.0242 H   0  0  0  0  0  0
   40.1004   11.5757   14.8938 H   0  0  0  0  0  0
   41.0627    7.6645   16.4602 H   0  0  0  0  0  0
   39.2423    8.6438   14.1543 H   0  0  0  0  0  0
   37.1998    6.7458   13.9103 H   0  0  0  0  0  0
   36.0367    7.9713   13.3004 H   0  0  0  0  0  0
   37.7976    8.3261   13.3004 H   0  0  0  0  0  0
   40.2918   16.5378   14.7768 H   0  0  0  0  0  0
   41.3745   17.9418   14.4856 H   0  0  0  0  0  0
  1  9  1  0  0  0
  1  2  1  0  0  0
  1  5  2  0  0  0
  2  3  1  0  0  0
  3 18  1  0  0  0
  3  4  2  0  0  0
  4  5  1  0  0  0
  4 21  1  0  0  0
  5  6  1  0  0  0
  7  8  2  0  0  0
  7 12  1  0  0  0
  7 26  1  0  0  0
  8  9  1  0  0  0
  8 27  1  0  0  0
  9 10  2  0  0  0
 10 11  1  0  0  0
 10 28  1  0  0  0
 11 12  2  0  0  0
 11 13  1  0  0  0
 12 29  1  0  0  0
 13 14  1  0  0  0
 13 30  1  0  0  0
 14 15  2  0  0  0
 14 16  1  0  0  0
 16 17  1  0  0  0
 17 31  1  0  0  0
 17 32  1  0  0  0
 17 33  1  0  0  0
 18 19  1  0  0  0
 18 20  2  0  0  0
 21 22  1  0  0  0
 22 23  1  0  0  0
 22 34  1  0  0  0
 22 35  1  0  0  0
 23 24  2  0  0  0
 23 25  1  0  0  0
M  CHG  2  19  -1  25  -1
M  END
> <s_m_entry_id>
1659

> <MODEL>
1

> <REMARK>
 VINA RESULT:    -7.202      0.000      0.000
 INTER + INTRA:         -10.485
 INTER:                 -10.545
 INTRA:                   0.061
 UNBOUND:                -0.335
  Name = /scratch/kmzp800/tmpeqd7qdar/tmp6ehk1ac9.pdb
  8 active torsions:
  status: ('A' for Active; 'I' for Inactive)
    1  A    between atoms: C3_3  and  C4_4
    2  A    between atoms: C5_6  and  C6_7
    3  A    between atoms: C7_10  and  O3_11
    4  A    between atoms: O3_11  and  C8_12
    5  A    between atoms: C8_12  and  C9_13
    6  A    between atoms: C12_19  and  N1_20
    7  A    between atoms: C13_21  and  O7_23
    8  A    between atoms: O7_23  and  C14_24
                            x       y       z     vdW  Elec       q    Type
                         _______ _______ _______ _____ _____    ______ ____

> <TORSDO>
F 7

> <grid_id>
ptp1b-prepared

> <grid_path>
ptp1b_vina.pdbqt

> <grid_filename>
ptp1b_vina.pdbqt

> <docking_score>
-7.202

> <compound_name>
lig_23471

> <index_string>
9:0:0

> <s_m_Source_Path>
/projects/mai/users/kmzp800_harry/pmx_colab/docking_jobs

> <s_m_Source_File>
ptp1b_vina_mcs_confs.sdf

> <i_m_Source_File_Index>
10

> <s_m_entry_id>
1226

> <s_m_Source_Path>
/projects/mai/users/kmzp800_harry/pmx_colab/docking_jobs/ptp1b

> <s_m_Source_File>
ptp1b_confs_vina_mcs.sdf

> <i_m_Source_File_Index>
10

$$$$
lig_23467
                    3D
 Schrodinger Suite 2021-4.
 31 32  0  0  1  0            999 V2000
   42.3870   12.7070   15.9240 C   0  0  0  0  0  0
   43.3500   13.4440   17.0940 S   0  0  0  0  0  0
   43.4760   14.9380   16.3440 C   0  0  0  0  0  0
   42.7670   14.8940   15.1470 C   0  0  0  0  0  0
   42.1360   13.6470   14.9090 C   0  0  0  0  0  0
   40.9060   13.3400   13.4620 Br  0  0  0  0  0  0
   40.3610    9.5350   15.4110 C   0  0  0  0  0  0
   41.0780    8.6280   16.1960 C   0  0  0  0  0  0
   42.2140    9.0450   16.8940 C   0  0  0  0  0  0
   42.6260   10.3830   16.7990 C   0  0  0  0  0  0
   41.9100   11.3070   16.0220 C   0  0  0  0  0  0
   40.7790   10.8640   15.3230 C   0  0  0  0  0  0
   42.9130    8.1150   17.6680 O   0  0  0  0  0  0
   44.0000    8.4780   18.5080 C   0  0  0  0  0  0
   44.2310   16.0820   16.8800 C   0  0  0  0  0  0
   45.0110   16.7280   16.1320 O   0  0  0  0  0  0
   44.0930   16.4610   18.2090 O   0  5  0  0  0  0
   42.7040   16.0140   14.3040 O   0  0  0  0  0  0
   41.7910   17.0900   14.4690 C   0  0  0  0  0  0
   40.9420   17.2330   13.2520 C   0  0  0  0  0  0
   41.4740   17.4880   12.1400 O   0  0  0  0  0  0
   39.5630   17.1250   13.3510 O   0  5  0  0  0  0
   39.4675    9.2018   14.8626 H   0  0  0  0  0  0
   40.7465    7.5814   16.2646 H   0  0  0  0  0  0
   43.5240   10.7129   17.3419 H   0  0  0  0  0  0
   40.2143   11.5715   14.6980 H   0  0  0  0  0  0
   43.6990    8.3775   19.5612 H   0  0  0  0  0  0
   44.8558    7.8169   18.3065 H   0  0  0  0  0  0
   44.2868    9.5207   18.3065 H   0  0  0  0  0  0
   41.1485   16.8917   15.3395 H   0  0  0  0  0  0
   42.3561   18.0208   14.6250 H   0  0  0  0  0  0
  1 11  1  0  0  0
  1  2  1  0  0  0
  1  5  2  0  0  0
  2  3  1  0  0  0
  3 15  1  0  0  0
  3  4  2  0  0  0
  4  5  1  0  0  0
  4 18  1  0  0  0
  5  6  1  0  0  0
  7  8  2  0  0  0
  7 12  1  0  0  0
  7 23  1  0  0  0
  8  9  1  0  0  0
  8 24  1  0  0  0
  9 13  1  0  0  0
  9 10  2  0  0  0
 10 11  1  0  0  0
 10 25  1  0  0  0
 11 12  2  0  0  0
 12 26  1  0  0  0
 13 14  1  0  0  0
 14 27  1  0  0  0
 14 28  1  0  0  0
 14 29  1  0  0  0
 15 17  1  0  0  0
 15 16  2  0  0  0
 18 19  1  0  0  0
 19 20  1  0  0  0
 19 30  1  0  0  0
 19 31  1  0  0  0
 20 22  1  0  0  0
 20 21  2  0  0  0
M  CHG  2  17  -1  22  -1
M  END
> <s_m_entry_id>
1660

> <MODEL>
3

> <REMARK>
 VINA RESULT:    -6.137      2.025      2.529
 INTER + INTRA:          -9.035
 INTER:                  -8.989
 INTRA:                  -0.046
 UNBOUND:                -0.745
  Name = /scratch/kmzp800/tmp3ojuk4wq/tmp7y9b7yqz.pdb
  7 active torsions:
  status: ('A' for Active; 'I' for Inactive)
    1  A    between atoms: C3_3  and  O1_4
    2  A    between atoms: O1_4  and  C4_5
    3  A    between atoms: C6_7  and  C7_8
    4  A    between atoms: C8_10  and  C9_11
    5  A    between atoms: C10_14  and  O4_15
    6  A    between atoms: O4_15  and  C11_16
    7  A    between atoms: C11_16  and  C12_17
                            x       y       z     vdW  Elec       q    Type
                         _______ _______ _______ _____ _____    ______ ____

> <TORSDO>
F 6

> <grid_id>
ptp1b-prepared

> <grid_path>
ptp1b_vina.pdbqt

> <grid_filename>
ptp1b_vina.pdbqt

> <docking_score>
-6.137

> <compound_name>
lig_23467

> <index_string>
10:0:2

> <s_m_Source_Path>
/projects/mai/users/kmzp800_harry/pmx_colab/docking_jobs

> <s_m_Source_File>
ptp1b_vina_mcs_confs.sdf

> <i_m_Source_File_Index>
11

> <s_m_entry_id>
1227

> <s_m_Source_Path>
/projects/mai/users/kmzp800_harry/pmx_colab/docking_jobs/ptp1b

> <s_m_Source_File>
ptp1b_confs_vina_mcs.sdf

> <i_m_Source_File_Index>
11

$$$$
lig_23486
                    3D
 Schrodinger Suite 2021-4.
 60 63  0  0  1  0            999 V2000
   40.8610   10.0710   18.3990 C   0  0  0  0  0  0
   41.7600    9.0130   18.2410 C   0  0  0  0  0  0
   42.8910    9.1690   17.4350 C   0  0  0  0  0  0
   43.1270   10.3840   16.7840 C   0  0  0  0  0  0
   42.2370   11.4560   16.9320 C   0  0  0  0  0  0
   41.1070   11.2850   17.7430 C   0  0  0  0  0  0
   42.4650   12.7630   16.2720 C   0  0  0  0  0  0
   43.4810   13.9610   16.8840 S   0  0  0  0  0  0
   43.2540   15.0860   15.6570 C   0  0  0  0  0  0
   42.3770   14.5250   14.7190 C   0  0  0  0  0  0
   41.9220   13.2420   15.0710 C   0  0  0  0  0  0
   40.8000   12.3590   14.0430 Cl  0  0  0  0  0  0
   43.8100   16.4480   15.6930 C   0  0  0  0  0  0
   44.9840   16.6340   16.1050 O   0  5  0  0  0  0
   43.0330   17.5450   15.3420 O   0  0  0  0  0  0
   41.9820   15.1220   13.5150 O   0  0  0  0  0  0
   40.6670   15.6110   13.2740 C   0  0  0  0  0  0
   40.7230   16.9920   12.7180 C   0  0  0  0  0  0
   41.8090   17.4490   12.2780 O   0  0  0  0  0  0
   39.5700   17.7600   12.6510 O   0  5  0  0  0  0
   39.7050    9.8950   19.2310 N   0  0  0  0  0  0
   36.8860    7.1820   17.6310 N   0  0  2  0  0  0
   37.0980    8.4170   16.8530 C   0  0  0  0  0  0
   38.2890    9.2680   17.3190 C   0  0  0  0  0  0
   38.4920    9.1830   18.8340 C   0  0  0  0  0  0
   38.5280    7.7400   19.3570 C   0  0  0  0  0  0
   38.1130    6.7340   18.2880 C   0  0  0  0  0  0
   36.4230    5.9390   16.5120 S   0  0  0  0  0  0
   35.3860    5.0570   17.1520 O   0  0  0  0  0  0
   35.8370    6.5670   15.2780 O   0  0  0  0  0  0
   37.8480    4.9570   16.0620 C   0  0  0  0  0  0
   39.7400    6.5380   12.5550 C   0  0  0  0  0  0
   38.8890    5.4330   12.4530 C   0  0  0  0  0  0
   38.2730    4.9170   13.5960 C   0  0  0  0  0  0
   38.5100    5.5040   14.8450 C   0  0  0  0  0  0
   39.3570    6.6110   14.9460 C   0  0  0  0  0  0
   39.9730    7.1280   13.8020 C   0  0  0  0  0  0
   41.5773    8.0560   18.7517 H   0  0  0  0  0  0
   43.5970    8.3344   17.3124 H   0  0  0  0  0  0
   44.0188   10.4990   16.1504 H   0  0  0  0  0  0
   40.4002   12.1187   17.8670 H   0  0  0  0  0  0
   40.1603   14.9505   12.5549 H   0  0  0  0  0  0
   40.1124   15.6298   14.2238 H   0  0  0  0  0  0
   39.7322   10.3003   20.1775 H   0  0  0  0  0  0
   37.2664    8.1366   15.8028 H   0  0  0  0  0  0
   36.1985    9.0341   16.9951 H   0  0  0  0  0  0
   39.2001    8.9099   16.8173 H   0  0  0  0  0  0
   38.0809   10.3168   17.0608 H   0  0  0  0  0  0
   37.6162    9.6656   19.2924 H   0  0  0  0  0  0
   39.5515    7.5069   19.6858 H   0  0  0  0  0  0
   37.8149    7.6631   20.1910 H   0  0  0  0  0  0
   37.9385    5.7546   18.7573 H   0  0  0  0  0  0
   38.9145    6.6507   17.5392 H   0  0  0  0  0  0
   38.5661    4.9621   16.8952 H   0  0  0  0  0  0
   37.5135    3.9312   15.8481 H   0  0  0  0  0  0
   40.2260    6.9431   11.6552 H   0  0  0  0  0  0
   38.7045    4.9699   11.4725 H   0  0  0  0  0  0
   37.6017    4.0494   13.5147 H   0  0  0  0  0  0
   39.5393    7.0760   15.9261 H   0  0  0  0  0  0
   40.6407    7.9985   13.8825 H   0  0  0  0  0  0
  1 21  1  0  0  0
  1  2  2  0  0  0
  1  6  1  0  0  0
  2  3  1  0  0  0
  2 38  1  0  0  0
  3  4  2  0  0  0
  3 39  1  0  0  0
  4  5  1  0  0  0
  4 40  1  0  0  0
  5  6  2  0  0  0
  5  7  1  0  0  0
  6 41  1  0  0  0
  7  8  1  0  0  0
  7 11  2  0  0  0
  8  9  1  0  0  0
  9 13  1  0  0  0
  9 10  2  0  0  0
 10 11  1  0  0  0
 10 16  1  0  0  0
 11 12  1  0  0  0
 13 14  1  0  0  0
 13 15  2  0  0  0
 16 17  1  0  0  0
 17 18  1  0  0  0
 17 42  1  0  0  0
 17 43  1  0  0  0
 18 19  2  0  0  0
 18 20  1  0  0  0
 21 25  1  0  0  0
 21 44  1  0  0  0
 22 27  1  0  0  0
 22 23  1  0  0  0
 22 28  1  0  0  0
 23 24  1  0  0  0
 23 45  1  0  0  0
 23 46  1  0  0  0
 24 25  1  0  0  0
 24 47  1  0  0  0
 24 48  1  0  0  0
 25 26  1  0  0  0
 25 49  1  0  0  0
 26 27  1  0  0  0
 26 50  1  0  0  0
 26 51  1  0  0  0
 27 52  1  0  0  0
 27 53  1  0  0  0
 28 29  2  0  0  0
 28 30  2  0  0  0
 28 31  1  0  0  0
 31 35  1  0  0  0
 31 54  1  0  0  0
 31 55  1  0  0  0
 32 37  2  0  0  0
 32 33  1  0  0  0
 32 56  1  0  0  0
 33 34  2  0  0  0
 33 57  1  0  0  0
 34 35  1  0  0  0
 34 58  1  0  0  0
 35 36  2  0  0  0
 36 37  1  0  0  0
 36 59  1  0  0  0
 37 60  1  0  0  0
M  CHG  2  14  -1  20  -1
M  END
> <s_m_entry_id>
1661

> <MODEL>
2

> <REMARK>
 VINA RESULT:    -8.011      1.929      2.661
 INTER + INTRA:         -14.079
 INTER:                 -12.399
 INTRA:                  -1.680
 UNBOUND:                -1.384
  Name = /scratch/kmzp800/tmp9a9psuuh/tmpg7542g1_.pdb
  10 active torsions:
  status: ('A' for Active; 'I' for Inactive)
    1  A    between atoms: C4_4  and  C5_5
    2  A    between atoms: C5_5  and  S1_6
    3  A    between atoms: S1_6  and  N1_9
    4  A    between atoms: C8_12  and  N2_13
    5  A    between atoms: N2_13  and  C9_14
    6  A    between atoms: C13_18  and  C14_19
    7  A    between atoms: C15_21  and  C16_22
    8  A    between atoms: C17_25  and  O5_26
    9  A    between atoms: O5_26  and  C18_27
   10  A    between atoms: C18_27  and  C19_28
                            x       y       z     vdW  Elec       q    Type
                         _______ _______ _______ _____ _____    ______ ____

> <TORSDO>
F 10

> <grid_id>
ptp1b-prepared

> <grid_path>
ptp1b_vina.pdbqt

> <grid_filename>
ptp1b_vina.pdbqt

> <docking_score>
-8.011

> <compound_name>
lig_23486

> <index_string>
11:0:1

> <s_m_Source_Path>
/projects/mai/users/kmzp800_harry/pmx_colab/docking_jobs

> <s_m_Source_File>
ptp1b_vina_mcs_confs.sdf

> <i_m_Source_File_Index>
12

> <s_m_entry_id>
1228

> <s_m_Source_Path>
/projects/mai/users/kmzp800_harry/pmx_colab/docking_jobs/ptp1b

> <s_m_Source_File>
ptp1b_confs_vina_mcs.sdf

> <i_m_Source_File_Index>
12

$$$$
lig_23480
                    3D
 Schrodinger Suite 2021-4.
 53 55  0  0  1  0            999 V2000
   43.2030    9.1180   17.4770 C   0  0  0  0  0  0
   43.4050   10.4070   16.9760 C   0  0  0  0  0  0
   42.3290   11.2930   16.8270 C   0  0  0  0  0  0
   41.0440   10.8560   17.1760 C   0  0  0  0  0  0
   40.8320    9.5620   17.6720 C   0  0  0  0  0  0
   41.9180    8.6970   17.8250 C   0  0  0  0  0  0
   42.5080   12.6510   16.2630 C   0  0  0  0  0  0
   43.4880   13.8230   16.9730 S   0  0  0  0  0  0
   43.2090   15.0330   15.8460 C   0  0  0  0  0  0
   42.3310   14.5470   14.8780 C   0  0  0  0  0  0
   41.9410   13.1980   15.0990 C   0  0  0  0  0  0
   40.8890   12.1630   13.8620 Br  0  0  0  0  0  0
   43.7990   16.3790   15.9040 C   0  0  0  0  0  0
   44.9950   16.5270   16.2680 O   0  5  0  0  0  0
   43.0490   17.4970   15.5620 O   0  0  0  0  0  0
   41.9250   15.3640   13.8130 O   0  0  0  0  0  0
   40.6100   15.8630   13.6340 C   0  0  0  0  0  0
   40.6530   17.0860   12.7910 C   0  0  0  0  0  0
   41.7590   17.5430   12.4020 O   0  0  0  0  0  0
   39.4770   17.7500   12.4690 O   0  5  0  0  0  0
   39.5200    9.1120   18.0260 N   0  0  0  0  0  0
   38.5000    8.7790   17.0380 C   0  0  0  0  0  0
   39.0910    7.9550   15.8990 C   0  0  0  0  0  0
   38.6300    8.4860   14.5270 C   0  0  0  0  0  0
   37.9340    7.4340   13.6640 C   0  0  0  0  0  0
   36.9430    6.7120   14.4610 N   0  0  0  0  0  0
   35.6220    6.5040   13.9480 C   0  0  0  0  0  0
   35.3110    6.9380   12.8050 O   0  0  0  0  0  0
   37.3080    6.1660   15.7700 C   0  0  0  0  0  0
   38.7680    6.4720   16.1130 C   0  0  0  0  0  0
   34.6780    5.8200   14.7190 O   0  0  0  0  0  0
   34.1710    4.5520   14.3350 C   0  0  0  0  0  0
   44.0567    8.4349   17.5972 H   0  0  0  0  0  0
   44.4186   10.7295   16.6958 H   0  0  0  0  0  0
   40.1892   11.5383   17.0590 H   0  0  0  0  0  0
   41.7607    7.6826   18.2202 H   0  0  0  0  0  0
   39.9923   15.0988   13.1396 H   0  0  0  0  0  0
   40.1754   16.1092   14.6141 H   0  0  0  0  0  0
   39.2854    9.0191   19.0246 H   0  0  0  0  0  0
   37.7027    8.1989   17.5256 H   0  0  0  0  0  0
   38.0968    9.7139   16.6217 H   0  0  0  0  0  0
   40.1863    8.0560   15.9032 H   0  0  0  0  0  0
   37.9293    9.3174   14.6938 H   0  0  0  0  0  0
   39.5332    8.8013   13.9840 H   0  0  0  0  0  0
   37.4322    7.9290   12.8195 H   0  0  0  0  0  0
   38.6830    6.7223   13.2865 H   0  0  0  0  0  0
   36.6586    6.6117   16.5378 H   0  0  0  0  0  0
   37.1804    5.0739   15.7384 H   0  0  0  0  0  0
   39.4221    5.8662   15.4687 H   0  0  0  0  0  0
   38.9338    6.2299   17.1731 H   0  0  0  0  0  0
   33.9357    3.9636   15.2341 H   0  0  0  0  0  0
   33.2581    4.6880   13.7366 H   0  0  0  0  0  0
   34.9260    4.0211   13.7366 H   0  0  0  0  0  0
  1  6  2  0  0  0
  1  2  1  0  0  0
  1 33  1  0  0  0
  2  3  2  0  0  0
  2 34  1  0  0  0
  3  4  1  0  0  0
  3  7  1  0  0  0
  4  5  2  0  0  0
  4 35  1  0  0  0
  5  6  1  0  0  0
  5 21  1  0  0  0
  6 36  1  0  0  0
  7  8  1  0  0  0
  7 11  2  0  0  0
  8  9  1  0  0  0
  9 13  1  0  0  0
  9 10  2  0  0  0
 10 11  1  0  0  0
 10 16  1  0  0  0
 11 12  1  0  0  0
 13 14  1  0  0  0
 13 15  2  0  0  0
 16 17  1  0  0  0
 17 18  1  0  0  0
 17 37  1  0  0  0
 17 38  1  0  0  0
 18 19  2  0  0  0
 18 20  1  0  0  0
 21 22  1  0  0  0
 21 39  1  0  0  0
 22 23  1  0  0  0
 22 40  1  0  0  0
 22 41  1  0  0  0
 23 30  1  0  0  0
 23 24  1  0  0  0
 23 42  1  0  0  0
 24 25  1  0  0  0
 24 43  1  0  0  0
 24 44  1  0  0  0
 25 26  1  0  0  0
 25 45  1  0  0  0
 25 46  1  0  0  0
 26 29  1  0  0  0
 26 27  1  0  0  0
 27 31  1  0  0  0
 27 28  2  0  0  0
 29 30  1  0  0  0
 29 47  1  0  0  0
 29 48  1  0  0  0
 30 49  1  0  0  0
 30 50  1  0  0  0
 31 32  1  0  0  0
 32 51  1  0  0  0
 32 52  1  0  0  0
 32 53  1  0  0  0
M  CHG  2  14  -1  20  -1
M  END
> <s_m_entry_id>
1662

> <MODEL>
2

> <REMARK>
 VINA RESULT:    -7.211      1.295      1.432
 INTER + INTRA:         -12.142
 INTER:                 -11.032
 INTRA:                  -1.110
 UNBOUND:                -1.138
  Name = /scratch/kmzp800/tmpvd81td7x/tmprop615uf.pdb
  10 active torsions:
  status: ('A' for Active; 'I' for Inactive)
    1  A    between atoms: C3_3  and  C4_4
    2  A    between atoms: C5_6  and  C6_7
    3  A    between atoms: C7_10  and  O3_11
    4  A    between atoms: O3_11  and  C8_12
    5  A    between atoms: C8_12  and  C9_13
    6  A    between atoms: C12_19  and  N1_20
    7  A    between atoms: N1_20  and  C13_21
    8  A    between atoms: C13_21  and  C14_22
    9  A    between atoms: C17_26  and  O7_28
   10  A    between atoms: O7_28  and  C18_29
                            x       y       z     vdW  Elec       q    Type
                         _______ _______ _______ _____ _____    ______ ____

> <TORSDO>
F 9

> <grid_id>
ptp1b-prepared

> <grid_path>
ptp1b_vina.pdbqt

> <grid_filename>
ptp1b_vina.pdbqt

> <docking_score>
-7.211

> <compound_name>
lig_23480

> <index_string>
12:0:1

> <s_m_Source_Path>
/projects/mai/users/kmzp800_harry/pmx_colab/docking_jobs

> <s_m_Source_File>
ptp1b_vina_mcs_confs.sdf

> <i_m_Source_File_Index>
13

> <s_m_entry_id>
1229

> <s_m_Source_Path>
/projects/mai/users/kmzp800_harry/pmx_colab/docking_jobs/ptp1b

> <s_m_Source_File>
ptp1b_confs_vina_mcs.sdf

> <i_m_Source_File_Index>
13

$$$$
lig_23470
                    3D
 Schrodinger Suite 2021-4.
 42 43  0  0  1  0            999 V2000
   42.5150    8.8890   16.9650 C   0  0  0  0  0  0
   42.9100   10.2200   16.8100 C   0  0  0  0  0  0
   41.9950   11.1900   16.3770 C   0  0  0  0  0  0
   40.6820   10.7960   16.0820 C   0  0  0  0  0  0
   40.2760    9.4620   16.2310 C   0  0  0  0  0  0
   41.2010    8.5130   16.6770 C   0  0  0  0  0  0
   42.4390   12.5910   16.1950 C   0  0  0  0  0  0
   43.3690   13.4260   17.3250 S   0  0  0  0  0  0
   43.4700   14.8700   16.4780 C   0  0  0  0  0  0
   42.7770   14.7290   15.2780 C   0  0  0  0  0  0
   42.1780   13.4540   15.1180 C   0  0  0  0  0  0
   40.9620   13.0210   13.6920 Br  0  0  0  0  0  0
   44.1920   16.0640   16.9430 C   0  0  0  0  0  0
   44.0050   16.4990   18.1090 O   0  5  0  0  0  0
   45.0850   16.7210   16.1060 O   0  0  0  0  0  0
   42.7000   15.7870   14.3600 O   0  0  0  0  0  0
   41.7760   16.8630   14.4550 C   0  0  0  0  0  0
   41.1670   17.1340   13.1220 C   0  0  0  0  0  0
   40.4990   18.1830   12.9380 O   0  5  0  0  0  0
   41.3080   16.2110   12.0950 O   0  0  0  0  0  0
   38.9360    9.0380   15.9440 N   0  0  0  0  0  0
   38.4860    8.3610   14.7650 C   0  0  0  0  0  0
   39.2990    8.0270   13.8600 O   0  0  0  0  0  0
   37.0930    8.0580   14.6300 N   0  0  0  0  0  0
   36.4970    7.3730   13.4860 C   0  0  0  0  0  0
   35.5030    6.3190   13.9430 C   0  0  0  0  0  0
   35.8300    8.3610   12.5480 C   0  0  0  0  0  0
   43.2385    8.1374   17.3137 H   0  0  0  0  0  0
   43.9482   10.5096   17.0296 H   0  0  0  0  0  0
   39.9588   11.5454   15.7280 H   0  0  0  0  0  0
   40.8922    7.4646   16.8017 H   0  0  0  0  0  0
   40.9831   16.5996   15.1705 H   0  0  0  0  0  0
   42.3060   17.7636   14.7986 H   0  0  0  0  0  0
   38.2239    9.2415   16.6599 H   0  0  0  0  0  0
   36.4657    8.3439   15.3953 H   0  0  0  0  0  0
   37.3063    6.8698   12.9366 H   0  0  0  0  0  0
   35.4771    6.2916   15.0424 H   0  0  0  0  0  0
   34.5026    6.5673   13.5588 H   0  0  0  0  0  0
   35.8095    5.3349   13.5588 H   0  0  0  0  0  0
   35.3099    9.1314   13.1363 H   0  0  0  0  0  0
   36.5926    8.8366   11.9137 H   0  0  0  0  0  0
   35.1038    7.8315   11.9137 H   0  0  0  0  0  0
  1  2  2  0  0  0
  1  6  1  0  0  0
  1 28  1  0  0  0
  2  3  1  0  0  0
  2 29  1  0  0  0
  3  4  2  0  0  0
  3  7  1  0  0  0
  4  5  1  0  0  0
  4 30  1  0  0  0
  5  6  2  0  0  0
  5 21  1  0  0  0
  6 31  1  0  0  0
  7  8  1  0  0  0
  7 11  2  0  0  0
  8  9  1  0  0  0
  9 13  1  0  0  0
  9 10  2  0  0  0
 10 11  1  0  0  0
 10 16  1  0  0  0
 11 12  1  0  0  0
 13 14  1  0  0  0
 13 15  2  0  0  0
 16 17  1  0  0  0
 17 18  1  0  0  0
 17 32  1  0  0  0
 17 33  1  0  0  0
 18 19  1  0  0  0
 18 20  2  0  0  0
 21 22  1  0  0  0
 21 34  1  0  0  0
 22 23  2  0  0  0
 22 24  1  0  0  0
 24 25  1  0  0  0
 24 35  1  0  0  0
 25 26  1  0  0  0
 25 27  1  0  0  0
 25 36  1  0  0  0
 26 37  1  0  0  0
 26 38  1  0  0  0
 26 39  1  0  0  0
 27 40  1  0  0  0
 27 41  1  0  0  0
 27 42  1  0  0  0
M  CHG  2  14  -1  19  -1
M  END
> <s_m_entry_id>
1663

> <MODEL>
1

> <REMARK>
 VINA RESULT:    -7.703      0.000      0.000
 INTER + INTRA:         -10.673
 INTER:                 -10.214
 INTRA:                  -0.459
 UNBOUND:                 0.182
  Name = /scratch/kmzp800/tmpc4tdy994/tmpvi4rhkj3.pdb
  9 active torsions:
  status: ('A' for Active; 'I' for Inactive)
    1  A    between atoms: C3_3  and  C4_4
    2  A    between atoms: C5_6  and  C6_7
    3  A    between atoms: C7_10  and  O3_11
    4  A    between atoms: O3_11  and  C8_12
    5  A    between atoms: C8_12  and  C9_13
    6  A    between atoms: C12_19  and  N1_20
    7  A    between atoms: N2_23  and  C14_24
    8  A    between atoms: C14_24  and  C15_25
    9  A    between atoms: C14_24  and  C16_26
                            x       y       z     vdW  Elec       q    Type
                         _______ _______ _______ _____ _____    ______ ____

> <TORSDO>
F 7

> <grid_id>
ptp1b-prepared

> <grid_path>
ptp1b_vina.pdbqt

> <grid_filename>
ptp1b_vina.pdbqt

> <docking_score>
-7.703

> <compound_name>
lig_23470

> <index_string>
13:0:0

> <s_m_Source_Path>
/projects/mai/users/kmzp800_harry/pmx_colab/docking_jobs

> <s_m_Source_File>
ptp1b_vina_mcs_confs.sdf

> <i_m_Source_File_Index>
14

> <s_m_entry_id>
1230

> <s_m_Source_Path>
/projects/mai/users/kmzp800_harry/pmx_colab/docking_jobs/ptp1b

> <s_m_Source_File>
ptp1b_confs_vina_mcs.sdf

> <i_m_Source_File_Index>
14

$$$$
lig_20669_2qbr
                    3D
 Schrodinger Suite 2021-4.
 42 44  0  0  1  0            999 V2000
   40.4000    9.5680   16.0120 C   0  0  0  0  0  0
   41.3830    8.7220   16.5440 C   0  0  0  0  0  0
   42.6580    9.2190   16.8240 C   0  0  0  0  0  0
   42.9550   10.5590   16.5700 C   0  0  0  0  0  0
   41.9870   11.4170   16.0260 C   0  0  0  0  0  0
   40.7090   10.9080   15.7590 C   0  0  0  0  0  0
   42.3200   12.8420   15.7870 C   0  0  0  0  0  0
   43.3900   13.7190   16.7480 S   0  0  0  0  0  0
   43.2740   15.1690   15.9160 C   0  0  0  0  0  0
   42.3790   15.0040   14.8610 C   0  0  0  0  0  0
   41.8510   13.6900   14.7690 C   0  0  0  0  0  0
   40.7680   13.0840   13.2990 Br  0  0  0  0  0  0
   43.9940   16.4000   16.2740 C   0  0  0  0  0  0
   44.1030   17.3340   15.4350 O   0  0  0  0  0  0
   44.5600   16.5490   17.5340 O   0  5  0  0  0  0
   42.0820   16.0650   13.9930 O   0  0  0  0  0  0
   40.9760   16.9430   14.1520 C   0  0  0  0  0  0
   40.3080   17.1690   12.8400 C   0  0  0  0  0  0
   39.0540   17.2400   12.7760 O   0  5  0  0  0  0
   41.0650   17.2570   11.6800 O   0  0  0  0  0  0
   39.0850    9.0880   15.7150 N   0  0  0  0  0  0
   38.6590    8.6580   14.3890 C   0  0  0  0  0  0
   39.2400    4.4330   13.9320 C   0  0  0  0  0  0
   38.9870    4.9700   15.1980 C   0  0  0  0  0  0
   38.7940    6.3460   15.3470 C   0  0  0  0  0  0
   38.8530    7.1880   14.2310 C   0  0  0  0  0  0
   39.1070    6.6480   12.9640 C   0  0  0  0  0  0
   39.3000    5.2720   12.8160 C   0  0  0  0  0  0
   41.1499    7.6652   16.7412 H   0  0  0  0  0  0
   43.4275    8.5548   17.2444 H   0  0  0  0  0  0
   43.9587   10.9466   16.7987 H   0  0  0  0  0  0
   39.9371   11.5728   15.3440 H   0  0  0  0  0  0
   40.2563   16.4977   14.8546 H   0  0  0  0  0  0
   41.3349   17.9063   14.5435 H   0  0  0  0  0  0
   38.3998    9.0438   16.4828 H   0  0  0  0  0  0
   37.5943    8.8994   14.2545 H   0  0  0  0  0  0
   39.2639    9.1806   13.6334 H   0  0  0  0  0  0
   39.3918    3.3499   13.8145 H   0  0  0  0  0  0
   38.9399    4.3095   16.0764 H   0  0  0  0  0  0
   38.5954    6.7679   16.3433 H   0  0  0  0  0  0
   39.1546    7.3074   12.0849 H   0  0  0  0  0  0
   39.4993    4.8489   11.8204 H   0  0  0  0  0  0
  1  2  2  0  0  0
  1  6  1  0  0  0
  1 21  1  0  0  0
  2  3  1  0  0  0
  2 29  1  0  0  0
  3  4  2  0  0  0
  3 30  1  0  0  0
  4  5  1  0  0  0
  4 31  1  0  0  0
  5  6  2  0  0  0
  5  7  1  0  0  0
  6 32  1  0  0  0
  7  8  1  0  0  0
  7 11  2  0  0  0
  8  9  1  0  0  0
  9 13  1  0  0  0
  9 10  2  0  0  0
 10 11  1  0  0  0
 10 16  1  0  0  0
 11 12  1  0  0  0
 13 15  1  0  0  0
 13 14  2  0  0  0
 16 17  1  0  0  0
 17 18  1  0  0  0
 17 33  1  0  0  0
 17 34  1  0  0  0
 18 19  1  0  0  0
 18 20  2  0  0  0
 21 22  1  0  0  0
 21 35  1  0  0  0
 22 26  1  0  0  0
 22 36  1  0  0  0
 22 37  1  0  0  0
 23 24  2  0  0  0
 23 28  1  0  0  0
 23 38  1  0  0  0
 24 25  1  0  0  0
 24 39  1  0  0  0
 25 26  2  0  0  0
 25 40  1  0  0  0
 26 27  1  0  0  0
 27 28  2  0  0  0
 27 41  1  0  0  0
 28 42  1  0  0  0
M  CHG  2  15  -1  19  -1
M  END
> <s_m_entry_id>
1664

> <MODEL>
10

> <REMARK>
 VINA RESULT:    -6.833      5.875      9.675
 INTER + INTRA:         -11.183
 INTER:                 -10.770
 INTRA:                  -0.413
 UNBOUND:                -1.155
  Name = /scratch/kmzp800/tmpmvs7blqo/tmpyvmkqd8_.pdb
  8 active torsions:
  status: ('A' for Active; 'I' for Inactive)
    1  A    between atoms: C4_4  and  C5_5
    2  A    between atoms: C5_5  and  N1_6
    3  A    between atoms: N1_6  and  C6_7
    4  A    between atoms: C10_11  and  C11_12
    5  A    between atoms: C12_14  and  C13_15
    6  A    between atoms: C14_18  and  O3_19
    7  A    between atoms: O3_19  and  C15_20
    8  A    between atoms: C15_20  and  C16_21
                            x       y       z     vdW  Elec       q    Type
                         _______ _______ _______ _____ _____    ______ ____

> <TORSDO>
F 8

> <grid_id>
ptp1b-prepared

> <grid_path>
ptp1b_vina.pdbqt

> <grid_filename>
ptp1b_vina.pdbqt

> <docking_score>
-6.833

> <compound_name>
lig_20669_2qbr

> <index_string>
14:0:9

> <s_m_Source_Path>
/projects/mai/users/kmzp800_harry/pmx_colab/docking_jobs

> <s_m_Source_File>
ptp1b_vina_mcs_confs.sdf

> <i_m_Source_File_Index>
15

> <s_m_entry_id>
1231

> <s_m_Source_Path>
/projects/mai/users/kmzp800_harry/pmx_colab/docking_jobs/ptp1b

> <s_m_Source_File>
ptp1b_confs_vina_mcs.sdf

> <i_m_Source_File_Index>
15

$$$$
lig_23485
                    3D
 Schrodinger Suite 2021-4.
 63 66  0  0  1  0            999 V2000
   40.9980    9.9840   18.4440 C   0  0  0  0  0  0
   41.9320    8.9560   18.2890 C   0  0  0  0  0  0
   43.0630    9.1490   17.4900 C   0  0  0  0  0  0
   43.2640   10.3740   16.8460 C   0  0  0  0  0  0
   42.3390   11.4170   16.9920 C   0  0  0  0  0  0
   41.2100   11.2070   17.7940 C   0  0  0  0  0  0
   42.5310   12.7310   16.3350 C   0  0  0  0  0  0
   43.5080   13.9610   16.9480 S   0  0  0  0  0  0
   43.2490   15.0770   15.7200 C   0  0  0  0  0  0
   42.3910   14.4890   14.7790 C   0  0  0  0  0  0
   41.9770   13.1940   15.1340 C   0  0  0  0  0  0
   41.0560   12.3990   14.2680 C   0  0  0  0  0  0
   43.7610   16.4570   15.7570 C   0  0  0  0  0  0
   42.9770   17.4220   15.5630 O   0  0  0  0  0  0
   45.1150   16.7100   15.9380 O   0  5  0  0  0  0
   41.9810   15.0720   13.5720 O   0  0  0  0  0  0
   40.7470   15.7610   13.4110 C   0  0  0  0  0  0
   40.9590   17.0390   12.6740 C   0  0  0  0  0  0
   41.1490   17.0240   11.4310 O   0  0  0  0  0  0
   40.9080   18.2490   13.3540 O   0  5  0  0  0  0
   39.8440    9.7680   19.2680 N   0  0  0  0  0  0
   37.1930    6.8240   17.7920 N   0  0  2  0  0  0
   37.4200    7.9820   16.9080 C   0  0  0  0  0  0
   38.5570    8.9140   17.3530 C   0  0  0  0  0  0
   38.6760    8.9810   18.8790 C   0  0  0  0  0  0
   38.7220    7.5970   19.5410 C   0  0  0  0  0  0
   38.3930    6.4790   18.5550 C   0  0  0  0  0  0
   36.8230    5.4650   16.7810 S   0  0  0  0  0  0
   37.2410    4.1990   17.4770 O   0  0  0  0  0  0
   35.3420    5.4170   16.5260 O   0  0  0  0  0  0
   37.6900    5.6040   15.2240 C   0  0  0  0  0  0
   34.9670    5.5130   11.9150 C   0  0  0  0  0  0
   35.6040    4.3400   12.3280 C   0  0  0  0  0  0
   36.4910    4.3680   13.4090 C   0  0  0  0  0  0
   36.7390    5.5710   14.0780 C   0  0  0  0  0  0
   36.1040    6.7460   13.6610 C   0  0  0  0  0  0
   35.2170    6.7170   12.5800 C   0  0  0  0  0  0
   41.7769    7.9927   18.7969 H   0  0  0  0  0  0
   43.7950    8.3370   17.3679 H   0  0  0  0  0  0
   44.1560   10.5204   16.2192 H   0  0  0  0  0  0
   40.4761   12.0173   17.9158 H   0  0  0  0  0  0
   40.3746   11.8108   14.9003 H   0  0  0  0  0  0
   40.4706   13.0802   13.6329 H   0  0  0  0  0  0
   41.6444   11.7204   13.6329 H   0  0  0  0  0  0
   40.0490   15.1271   12.8444 H   0  0  0  0  0  0
   40.3313   15.9861   14.4042 H   0  0  0  0  0  0
   39.8383   10.1996   20.2032 H   0  0  0  0  0  0
   37.6595    7.6045   15.9030 H   0  0  0  0  0  0
   36.4976    8.5807   16.9360 H   0  0  0  0  0  0
   39.5053    8.5414   16.9383 H   0  0  0  0  0  0
   38.3332    9.9256   16.9836 H   0  0  0  0  0  0
   37.7627    9.4753   19.2417 H   0  0  0  0  0  0
   39.7319    7.4295   19.9435 H   0  0  0  0  0  0
   37.9663    7.5779   20.3401 H   0  0  0  0  0  0
   38.2171    5.5448   19.1085 H   0  0  0  0  0  0
   39.2371    6.3477   17.8620 H   0  0  0  0  0  0
   38.2439    6.5542   15.2044 H   0  0  0  0  0  0
   38.3807    4.7530   15.1306 H   0  0  0  0  0  0
   34.2682    5.4891   11.0658 H   0  0  0  0  0  0
   35.4077    3.3938   11.8025 H   0  0  0  0  0  0
   36.9933    3.4445   13.7329 H   0  0  0  0  0  0
   36.3025    7.6933   14.1837 H   0  0  0  0  0  0
   34.7166    7.6406   12.2534 H   0  0  0  0  0  0
  1 21  1  0  0  0
  1  2  2  0  0  0
  1  6  1  0  0  0
  2  3  1  0  0  0
  2 38  1  0  0  0
  3  4  2  0  0  0
  3 39  1  0  0  0
  4  5  1  0  0  0
  4 40  1  0  0  0
  5  6  2  0  0  0
  5  7  1  0  0  0
  6 41  1  0  0  0
  7  8  1  0  0  0
  7 11  2  0  0  0
  8  9  1  0  0  0
  9 13  1  0  0  0
  9 10  2  0  0  0
 10 11  1  0  0  0
 10 16  1  0  0  0
 11 12  1  0  0  0
 12 42  1  0  0  0
 12 43  1  0  0  0
 12 44  1  0  0  0
 13 15  1  0  0  0
 13 14  2  0  0  0
 16 17  1  0  0  0
 17 18  1  0  0  0
 17 45  1  0  0  0
 17 46  1  0  0  0
 18 20  1  0  0  0
 18 19  2  0  0  0
 21 25  1  0  0  0
 21 47  1  0  0  0
 22 27  1  0  0  0
 22 23  1  0  0  0
 22 28  1  0  0  0
 23 24  1  0  0  0
 23 48  1  0  0  0
 23 49  1  0  0  0
 24 25  1  0  0  0
 24 50  1  0  0  0
 24 51  1  0  0  0
 25 26  1  0  0  0
 25 52  1  0  0  0
 26 27  1  0  0  0
 26 53  1  0  0  0
 26 54  1  0  0  0
 27 55  1  0  0  0
 27 56  1  0  0  0
 28 29  2  0  0  0
 28 30  2  0  0  0
 28 31  1  0  0  0
 31 35  1  0  0  0
 31 57  1  0  0  0
 31 58  1  0  0  0
 32 33  2  0  0  0
 32 37  1  0  0  0
 32 59  1  0  0  0
 33 34  1  0  0  0
 33 60  1  0  0  0
 34 35  2  0  0  0
 34 61  1  0  0  0
 35 36  1  0  0  0
 36 37  2  0  0  0
 36 62  1  0  0  0
 37 63  1  0  0  0
M  CHG  2  15  -1  20  -1
M  END
> <s_m_entry_id>
1665

> <MODEL>
4

> <REMARK>
 VINA RESULT:    -7.502      1.218      1.701
 INTER + INTRA:         -13.261
 INTER:                 -11.955
 INTRA:                  -1.306
 UNBOUND:                -1.374
  Name = /scratch/kmzp800/tmprbcyn43_/tmp0ay5lb5a.pdb
  11 active torsions:
  status: ('A' for Active; 'I' for Inactive)
    1  A    between atoms: C4_4  and  C5_5
    2  A    between atoms: C5_5  and  S1_6
    3  A    between atoms: S1_6  and  N1_9
    4  A    between atoms: C8_12  and  N2_13
    5  A    between atoms: N2_13  and  C9_14
    6  A    between atoms: C13_18  and  C14_19
    7  A    between atoms: C15_21  and  C16_22
    8  A    between atoms: C17_25  and  O5_26
    9  A    between atoms: O5_26  and  C18_27
   10  A    between atoms: C18_27  and  C19_28
   11  A    between atoms: C20_31  and  C21_32
                            x       y       z     vdW  Elec       q    Type
                         _______ _______ _______ _____ _____    ______ ____

> <TORSDO>
F 10

> <grid_id>
ptp1b-prepared

> <grid_path>
ptp1b_vina.pdbqt

> <grid_filename>
ptp1b_vina.pdbqt

> <docking_score>
-7.502

> <compound_name>
lig_23485

> <index_string>
15:0:3

> <s_m_Source_Path>
/projects/mai/users/kmzp800_harry/pmx_colab/docking_jobs

> <s_m_Source_File>
ptp1b_vina_mcs_confs.sdf

> <i_m_Source_File_Index>
16

> <s_m_entry_id>
1232

> <s_m_Source_Path>
/projects/mai/users/kmzp800_harry/pmx_colab/docking_jobs/ptp1b

> <s_m_Source_File>
ptp1b_confs_vina_mcs.sdf

> <i_m_Source_File_Index>
16

$$$$
lig_23474
                    3D
 Schrodinger Suite 2021-4.
 48 50  0  0  1  0            999 V2000
   42.3700    9.0160   16.8070 C   0  0  0  0  0  0
   42.7700   10.3500   16.7080 C   0  0  0  0  0  0
   41.9800   11.2860   16.0250 C   0  0  0  0  0  0
   40.7890   10.8530   15.4250 C   0  0  0  0  0  0
   40.3790    9.5140   15.5220 C   0  0  0  0  0  0
   41.1760    8.6000   16.2150 C   0  0  0  0  0  0
   42.4400   12.6890   15.9090 C   0  0  0  0  0  0
   43.4420   13.4310   17.0400 S   0  0  0  0  0  0
   43.5290   14.9260   16.2850 C   0  0  0  0  0  0
   42.7710   14.8800   15.1180 C   0  0  0  0  0  0
   42.1390   13.6250   14.9040 C   0  0  0  0  0  0
   40.8650   13.2810   13.5040 Br  0  0  0  0  0  0
   44.2960   16.0740   16.7940 C   0  0  0  0  0  0
   44.2690   16.3550   18.0210 O   0  5  0  0  0  0
   45.0540   16.8560   15.9330 O   0  0  0  0  0  0
   42.6730   16.0070   14.2870 O   0  0  0  0  0  0
   41.6830   17.0140   14.4080 C   0  0  0  0  0  0
   41.0700   17.2710   13.0790 C   0  0  0  0  0  0
   40.2930   18.2480   12.9210 O   0  5  0  0  0  0
   41.3230   16.4080   12.0200 O   0  0  0  0  0  0
   39.1660    9.0620   14.9140 N   0  0  0  0  0  0
   38.1660    8.2550   15.6030 C   0  0  0  0  0  0
   37.9700    6.9240   14.8960 C   0  0  0  0  0  0
   36.5190    6.8010   14.4400 C   0  0  0  0  0  0
   36.3030    5.4710   13.7250 C   0  0  0  0  0  0
   37.2400    5.3600   12.5260 C   0  0  0  0  0  0
   38.6920    5.4850   12.9790 C   0  0  0  0  0  0
   38.9060    6.8170   13.6930 C   0  0  0  0  0  0
   42.9954    8.2930   17.3512 H   0  0  0  0  0  0
   43.7151   10.6703   17.1708 H   0  0  0  0  0  0
   40.1677   11.5721   14.8710 H   0  0  0  0  0  0
   40.8619    7.5488   16.2946 H   0  0  0  0  0  0
   40.9058   16.6810   15.1116 H   0  0  0  0  0  0
   42.1459   17.9390   14.7824 H   0  0  0  0  0  0
   38.9886    9.3214   13.9331 H   0  0  0  0  0  0
   38.4995    8.0702   16.6348 H   0  0  0  0  0  0
   37.2104    8.7998   15.6027 H   0  0  0  0  0  0
   38.2056    6.1079   15.5949 H   0  0  0  0  0  0
   35.8568    6.8541   15.3167 H   0  0  0  0  0  0
   36.2897    7.6232   13.7461 H   0  0  0  0  0  0
   36.5067    4.6457   14.4231 H   0  0  0  0  0  0
   35.2620    5.4169   13.3737 H   0  0  0  0  0  0
   37.0938    4.3843   12.0396 H   0  0  0  0  0  0
   37.0139    6.1703   11.8173 H   0  0  0  0  0  0
   38.9306    4.6608   13.6673 H   0  0  0  0  0  0
   39.3492    5.4391   12.0981 H   0  0  0  0  0  0
   38.6975    7.6415   12.9953 H   0  0  0  0  0  0
   39.9478    6.8757   14.0410 H   0  0  0  0  0  0
  1  2  2  0  0  0
  1  6  1  0  0  0
  1 29  1  0  0  0
  2  3  1  0  0  0
  2 30  1  0  0  0
  3  4  2  0  0  0
  3  7  1  0  0  0
  4  5  1  0  0  0
  4 31  1  0  0  0
  5  6  2  0  0  0
  5 21  1  0  0  0
  6 32  1  0  0  0
  7  8  1  0  0  0
  7 11  2  0  0  0
  8  9  1  0  0  0
  9 13  1  0  0  0
  9 10  2  0  0  0
 10 11  1  0  0  0
 10 16  1  0  0  0
 11 12  1  0  0  0
 13 14  1  0  0  0
 13 15  2  0  0  0
 16 17  1  0  0  0
 17 18  1  0  0  0
 17 33  1  0  0  0
 17 34  1  0  0  0
 18 19  1  0  0  0
 18 20  2  0  0  0
 21 22  1  0  0  0
 21 35  1  0  0  0
 22 23  1  0  0  0
 22 36  1  0  0  0
 22 37  1  0  0  0
 23 24  1  0  0  0
 23 28  1  0  0  0
 23 38  1  0  0  0
 24 25  1  0  0  0
 24 39  1  0  0  0
 24 40  1  0  0  0
 25 26  1  0  0  0
 25 41  1  0  0  0
 25 42  1  0  0  0
 26 27  1  0  0  0
 26 43  1  0  0  0
 26 44  1  0  0  0
 27 28  1  0  0  0
 27 45  1  0  0  0
 27 46  1  0  0  0
 28 47  1  0  0  0
 28 48  1  0  0  0
M  CHG  2  14  -1  19  -1
M  END
> <s_m_entry_id>
1666

> <MODEL>
8

> <REMARK>
 VINA RESULT:    -7.453      6.290      9.045
 INTER + INTRA:         -11.007
 INTER:                 -10.657
 INTRA:                  -0.350
 UNBOUND:                -0.068
  Name = /scratch/kmzp800/tmpaoprtntn/tmp_93v_hlr.pdb
  8 active torsions:
  status: ('A' for Active; 'I' for Inactive)
    1  A    between atoms: C3_3  and  C4_4
    2  A    between atoms: C5_6  and  C6_7
    3  A    between atoms: C7_10  and  O3_11
    4  A    between atoms: O3_11  and  C8_12
    5  A    between atoms: C8_12  and  C9_13
    6  A    between atoms: C12_19  and  N1_20
    7  A    between atoms: N1_20  and  C13_21
    8  A    between atoms: C13_21  and  C14_22
                            x       y       z     vdW  Elec       q    Type
                         _______ _______ _______ _____ _____    ______ ____

> <TORSDO>
F 8

> <grid_id>
ptp1b-prepared

> <grid_path>
ptp1b_vina.pdbqt

> <grid_filename>
ptp1b_vina.pdbqt

> <docking_score>
-7.453

> <compound_name>
lig_23474

> <index_string>
16:0:7

> <s_m_Source_Path>
/projects/mai/users/kmzp800_harry/pmx_colab/docking_jobs

> <s_m_Source_File>
ptp1b_vina_mcs_confs.sdf

> <i_m_Source_File_Index>
17

> <s_m_entry_id>
1233

> <s_m_Source_Path>
/projects/mai/users/kmzp800_harry/pmx_colab/docking_jobs/ptp1b

> <s_m_Source_File>
ptp1b_confs_vina_mcs.sdf

> <i_m_Source_File_Index>
17

$$$$
lig_20667_2qbp
                    3D
 Schrodinger Suite 2021-4.
 60 63  0  0  1  0            999 V2000
   40.9630    9.5590   19.0110 C   0  0  0  0  0  0
   41.8270    8.4810   18.7960 C   0  0  0  0  0  0
   42.9880    8.6530   18.0380 C   0  0  0  0  0  0
   43.2900    9.9040   17.4930 C   0  0  0  0  0  0
   42.4360   10.9960   17.6980 C   0  0  0  0  0  0
   41.2770   10.8110   18.4630 C   0  0  0  0  0  0
   42.7480   12.3410   17.1650 C   0  0  0  0  0  0
   43.6190   13.5080   18.0140 S   0  0  0  0  0  0
   43.5880   14.7020   16.8340 C   0  0  0  0  0  0
   42.8930   14.1930   15.7280 C   0  0  0  0  0  0
   42.4080   12.8880   15.9200 C   0  0  0  0  0  0
   41.3810   12.0030   14.5630 Br  0  0  0  0  0  0
   44.1120   16.0610   17.0420 C   0  0  0  0  0  0
   44.7370   16.6390   16.1150 O   0  0  0  0  0  0
   43.9820   16.6940   18.2710 O   0  5  0  0  0  0
   42.6940   14.8620   14.5130 O   0  0  0  0  0  0
   41.6030   15.7400   14.2670 C   0  0  0  0  0  0
   42.0660   16.9460   13.5260 C   0  0  0  0  0  0
   43.1910   16.9450   12.9630 O   0  0  0  0  0  0
   41.2400   18.0570   13.4220 O   0  5  0  0  0  0
   39.7750    9.3620   19.7910 N   0  0  0  0  0  0
   36.7190    7.3250   17.6760 N   0  0  2  0  0  0
   37.1020    8.6510   17.1530 C   0  0  0  0  0  0
   38.3840    9.2350   17.7620 C   0  0  0  0  0  0
   38.4860    8.9260   19.2580 C   0  0  0  0  0  0
   38.2480    7.4460   19.5860 C   0  0  0  0  0  0
   37.8270    6.6510   18.3550 C   0  0  0  0  0  0
   36.2780    6.3380   16.3190 S   0  0  0  0  0  0
   35.0320    5.5650   16.6510 O   0  0  0  0  0  0
   36.0080    7.2130   15.1270 O   0  0  0  0  0  0
   37.6050    5.2050   15.9330 C   0  0  0  0  0  0
   39.9530    6.6340   12.6430 C   0  0  0  0  0  0
   40.0960    7.2130   13.9080 C   0  0  0  0  0  0
   39.3300    6.7460   14.9800 C   0  0  0  0  0  0
   38.4190    5.7010   14.7890 C   0  0  0  0  0  0
   38.2800    5.1200   13.5240 C   0  0  0  0  0  0
   39.0450    5.5860   12.4520 C   0  0  0  0  0  0
   41.5922    7.4955   19.2245 H   0  0  0  0  0  0
   43.6653    7.8027   17.8700 H   0  0  0  0  0  0
   44.2061   10.0326   16.8979 H   0  0  0  0  0  0
   40.6020   11.6620   18.6367 H   0  0  0  0  0  0
   40.8434   15.2159   13.6684 H   0  0  0  0  0  0
   41.1735   16.0548   15.2295 H   0  0  0  0  0  0
   39.8352    9.5415   20.8035 H   0  0  0  0  0  0
   37.2488    8.5614   16.0665 H   0  0  0  0  0  0
   36.2878    9.3390   17.4246 H   0  0  0  0  0  0
   39.2540    8.8012   17.2473 H   0  0  0  0  0  0
   38.3592   10.3275   17.6362 H   0  0  0  0  0  0
   37.6792    9.4933   19.7451 H   0  0  0  0  0  0
   39.1784    7.0163   19.9857 H   0  0  0  0  0  0
   37.4346    7.3871   20.3242 H   0  0  0  0  0  0
   37.5067    5.6449   18.6636 H   0  0  0  0  0  0
   38.6805    6.5767   17.6650 H   0  0  0  0  0  0
   38.2533    5.0975   16.8151 H   0  0  0  0  0  0
   37.1662    4.2355   15.6546 H   0  0  0  0  0  0
   40.5539    7.0021   11.7984 H   0  0  0  0  0  0
   40.8108    8.0353   14.0593 H   0  0  0  0  0  0
   39.4435    7.2006   15.9752 H   0  0  0  0  0  0
   37.5677    4.2955   13.3733 H   0  0  0  0  0  0
   38.9338    5.1292   11.4575 H   0  0  0  0  0  0
  1 21  1  0  0  0
  1  2  2  0  0  0
  1  6  1  0  0  0
  2  3  1  0  0  0
  2 38  1  0  0  0
  3  4  2  0  0  0
  3 39  1  0  0  0
  4  5  1  0  0  0
  4 40  1  0  0  0
  5  6  2  0  0  0
  5  7  1  0  0  0
  6 41  1  0  0  0
  7  8  1  0  0  0
  7 11  2  0  0  0
  8  9  1  0  0  0
  9 13  1  0  0  0
  9 10  2  0  0  0
 10 11  1  0  0  0
 10 16  1  0  0  0
 11 12  1  0  0  0
 13 15  1  0  0  0
 13 14  2  0  0  0
 16 17  1  0  0  0
 17 18  1  0  0  0
 17 42  1  0  0  0
 17 43  1  0  0  0
 18 19  2  0  0  0
 18 20  1  0  0  0
 21 25  1  0  0  0
 21 44  1  0  0  0
 22 27  1  0  0  0
 22 23  1  0  0  0
 22 28  1  0  0  0
 23 24  1  0  0  0
 23 45  1  0  0  0
 23 46  1  0  0  0
 24 25  1  0  0  0
 24 47  1  0  0  0
 24 48  1  0  0  0
 25 26  1  0  0  0
 25 49  1  0  0  0
 26 27  1  0  0  0
 26 50  1  0  0  0
 26 51  1  0  0  0
 27 52  1  0  0  0
 27 53  1  0  0  0
 28 29  2  0  0  0
 28 30  2  0  0  0
 28 31  1  0  0  0
 31 35  1  0  0  0
 31 54  1  0  0  0
 31 55  1  0  0  0
 32 33  2  0  0  0
 32 37  1  0  0  0
 32 56  1  0  0  0
 33 34  1  0  0  0
 33 57  1  0  0  0
 34 35  2  0  0  0
 34 58  1  0  0  0
 35 36  1  0  0  0
 36 37  2  0  0  0
 36 59  1  0  0  0
 37 60  1  0  0  0
M  CHG  2  15  -1  20  -1
M  END
> <s_m_entry_id>
1667

> <MODEL>
2

> <REMARK>
 VINA RESULT:    -8.115      1.977      2.866
 INTER + INTRA:         -13.507
 INTER:                 -11.660
 INTRA:                  -1.847
 UNBOUND:                -0.647
  Name = /scratch/kmzp800/tmpuubyye7i/tmpfyyhdp92.pdb
  10 active torsions:
  status: ('A' for Active; 'I' for Inactive)
    1  A    between atoms: C4_4  and  C5_5
    2  A    between atoms: C5_5  and  S1_6
    3  A    between atoms: S1_6  and  N1_9
    4  A    between atoms: C8_12  and  N2_13
    5  A    between atoms: N2_13  and  C9_14
    6  A    between atoms: C13_18  and  C14_19
    7  A    between atoms: C15_21  and  C16_22
    8  A    between atoms: C17_25  and  O5_26
    9  A    between atoms: O5_26  and  C18_27
   10  A    between atoms: C18_27  and  C19_28
                            x       y       z     vdW  Elec       q    Type
                         _______ _______ _______ _____ _____    ______ ____

> <TORSDO>
F 10

> <grid_id>
ptp1b-prepared

> <grid_path>
ptp1b_vina.pdbqt

> <grid_filename>
ptp1b_vina.pdbqt

> <docking_score>
-8.115

> <compound_name>
lig_20667_2qbp

> <index_string>
17:0:1

> <s_m_Source_Path>
/projects/mai/users/kmzp800_harry/pmx_colab/docking_jobs

> <s_m_Source_File>
ptp1b_vina_mcs_confs.sdf

> <i_m_Source_File_Index>
18

> <s_m_entry_id>
1234

> <s_m_Source_Path>
/projects/mai/users/kmzp800_harry/pmx_colab/docking_jobs/ptp1b

> <s_m_Source_File>
ptp1b_confs_vina_mcs.sdf

> <i_m_Source_File_Index>
18

$$$$
lig_23468
                    3D
 Schrodinger Suite 2021-4.
 37 38  0  0  1  0            999 V2000
   42.3730   12.8190   15.7480 C   0  0  0  0  0  0
   43.4380   13.7100   16.7040 S   0  0  0  0  0  0
   43.3350   15.1580   15.8600 C   0  0  0  0  0  0
   42.4640   14.9590   14.7800 C   0  0  0  0  0  0
   41.9120   13.6670   14.7280 C   0  0  0  0  0  0
   40.7010   13.1750   13.3250 Br  0  0  0  0  0  0
   42.5810    9.1900   16.8590 C   0  0  0  0  0  0
   42.9250   10.5240   16.6340 C   0  0  0  0  0  0
   42.0300   11.3990   16.0030 C   0  0  0  0  0  0
   40.7810   10.9050   15.6000 C   0  0  0  0  0  0
   40.4230    9.5670   15.8200 C   0  0  0  0  0  0
   41.3320    8.7140   16.4530 C   0  0  0  0  0  0
   39.1510    9.0450   15.4160 N   0  0  0  0  0  0
   38.9130    8.0400   14.4220 C   0  0  0  0  0  0
   39.8650    7.4960   13.8010 O   0  0  0  0  0  0
   37.5180    7.6080   14.1420 C   0  0  0  0  0  0
   36.8400    8.6110   13.2310 C   0  0  0  0  0  0
   43.9650   16.4080   16.3110 C   0  0  0  0  0  0
   44.0530   17.3850   15.5210 O   0  0  0  0  0  0
   44.5300   16.5070   17.5750 O   0  5  0  0  0  0
   42.1620   15.9090   13.7960 O   0  0  0  0  0  0
   41.2180   16.9570   13.9820 C   0  0  0  0  0  0
   40.4460   17.1850   12.7280 C   0  0  0  0  0  0
   41.0420   17.2400   11.6220 O   0  0  0  0  0  0
   39.0630   17.2990   12.7760 O   0  5  0  0  0  0
   43.2928    8.5142   17.3556 H   0  0  0  0  0  0
   43.9101   10.8929   16.9557 H   0  0  0  0  0  0
   40.0688   11.5795   15.1021 H   0  0  0  0  0  0
   41.0623    7.6627   16.6322 H   0  0  0  0  0  0
   38.3219    9.4321   15.8889 H   0  0  0  0  0  0
   37.5326    6.6228   13.6529 H   0  0  0  0  0  0
   36.9616    7.5452   15.0888 H   0  0  0  0  0  0
   36.3267    9.3703   13.8392 H   0  0  0  0  0  0
   37.5946    9.0984   12.5962 H   0  0  0  0  0  0
   36.1064    8.0924   12.5962 H   0  0  0  0  0  0
   40.5245   16.6817   14.7903 H   0  0  0  0  0  0
   41.7550   17.8803   14.2449 H   0  0  0  0  0  0
  1  9  1  0  0  0
  1  2  1  0  0  0
  1  5  2  0  0  0
  2  3  1  0  0  0
  3 18  1  0  0  0
  3  4  2  0  0  0
  4  5  1  0  0  0
  4 21  1  0  0  0
  5  6  1  0  0  0
  7  8  2  0  0  0
  7 12  1  0  0  0
  7 26  1  0  0  0
  8  9  1  0  0  0
  8 27  1  0  0  0
  9 10  2  0  0  0
 10 11  1  0  0  0
 10 28  1  0  0  0
 11 12  2  0  0  0
 11 13  1  0  0  0
 12 29  1  0  0  0
 13 14  1  0  0  0
 13 30  1  0  0  0
 14 15  2  0  0  0
 14 16  1  0  0  0
 16 17  1  0  0  0
 16 31  1  0  0  0
 16 32  1  0  0  0
 17 33  1  0  0  0
 17 34  1  0  0  0
 17 35  1  0  0  0
 18 20  1  0  0  0
 18 19  2  0  0  0
 21 22  1  0  0  0
 22 23  1  0  0  0
 22 36  1  0  0  0
 22 37  1  0  0  0
 23 25  1  0  0  0
 23 24  2  0  0  0
M  CHG  2  20  -1  25  -1
M  END
> <s_m_entry_id>
1668

> <MODEL>
2

> <REMARK>
 VINA RESULT:    -6.934      2.215      3.868
 INTER + INTRA:         -10.418
 INTER:                 -10.377
 INTRA:                  -0.041
 UNBOUND:                -0.647
  Name = /scratch/kmzp800/tmp85kvjvt7/tmpqfzjzdyg.pdb
  8 active torsions:
  status: ('A' for Active; 'I' for Inactive)
    1  A    between atoms: C3_3  and  C4_4
    2  A    between atoms: C5_6  and  C6_7
    3  A    between atoms: C7_10  and  O3_11
    4  A    between atoms: O3_11  and  C8_12
    5  A    between atoms: C8_12  and  C9_13
    6  A    between atoms: C12_19  and  N1_20
    7  A    between atoms: C13_21  and  C14_23
    8  A    between atoms: C14_23  and  C15_24
                            x       y       z     vdW  Elec       q    Type
                         _______ _______ _______ _____ _____    ______ ____

> <TORSDO>
F 7

> <grid_id>
ptp1b-prepared

> <grid_path>
ptp1b_vina.pdbqt

> <grid_filename>
ptp1b_vina.pdbqt

> <docking_score>
-6.934

> <compound_name>
lig_23468

> <index_string>
18:0:1

> <s_m_Source_Path>
/projects/mai/users/kmzp800_harry/pmx_colab/docking_jobs

> <s_m_Source_File>
ptp1b_vina_mcs_confs.sdf

> <i_m_Source_File_Index>
19

> <s_m_entry_id>
1235

> <s_m_Source_Path>
/projects/mai/users/kmzp800_harry/pmx_colab/docking_jobs/ptp1b

> <s_m_Source_File>
ptp1b_confs_vina_mcs.sdf

> <i_m_Source_File_Index>
19

$$$$
lig_23484
                    3D
 Schrodinger Suite 2021-4.
 60 63  0  0  1  0            999 V2000
   40.9460    9.5670   17.0720 C   0  0  0  0  0  0
   42.1460    8.9710   17.4720 C   0  0  0  0  0  0
   43.3640    9.6170   17.2400 C   0  0  0  0  0  0
   43.3850   10.8620   16.6060 C   0  0  0  0  0  0
   42.1900   11.4700   16.1970 C   0  0  0  0  0  0
   40.9740   10.8150   16.4340 C   0  0  0  0  0  0
   42.2100   12.7840   15.5290 C   0  0  0  0  0  0
   43.3770   13.9800   15.7530 S   0  0  0  0  0  0
   42.7050   15.0910   14.6870 C   0  0  0  0  0  0
   41.5510   14.5320   14.1400 C   0  0  0  0  0  0
   41.2690   13.2380   14.6100 C   0  0  0  0  0  0
   43.2640   16.4200   14.3990 C   0  0  0  0  0  0
   43.3380   17.2950   15.3020 O   0  5  0  0  0  0
   43.7170   16.7210   13.1200 O   0  0  0  0  0  0
   40.7560   15.2070   13.2100 O   0  0  0  0  0  0
   40.0010   16.3600   13.5520 C   0  0  0  0  0  0
   40.1340   17.3780   12.4770 C   0  0  0  0  0  0
   39.4250   18.4170   12.5030 O   0  5  0  0  0  0
   41.0700   17.2020   11.4670 O   0  0  0  0  0  0
   39.7120    8.8870   17.3200 N   0  0  0  0  0  0
   37.4210    6.8550   17.3110 N   0  0  1  0  0  0
   36.9270    7.5310   18.5100 C   0  0  0  0  0  0
   37.9100    8.6180   18.9530 C   0  0  0  0  0  0
   39.3650    8.2840   18.6020 C   0  0  0  0  0  0
   39.5970    6.7690   18.5630 C   0  0  0  0  0  0
   38.5960    6.0410   17.6470 C   0  0  0  0  0  0
   36.1680    5.7980   16.7330 S   0  0  0  0  0  0
   36.5950    4.3760   16.9580 O   0  0  0  0  0  0
   34.9010    6.0470   17.5040 O   0  0  0  0  0  0
   35.8510    6.0150   14.9830 C   0  0  0  0  0  0
   39.4860    6.5900   12.7800 C   0  0  0  0  0  0
   38.7690    7.6980   13.2410 C   0  0  0  0  0  0
   37.5820    7.5130   13.9560 C   0  0  0  0  0  0
   37.1100    6.2200   14.2110 C   0  0  0  0  0  0
   37.8270    5.1130   13.7440 C   0  0  0  0  0  0
   39.0150    5.2970   13.0300 C   0  0  0  0  0  0
   42.1317    7.9907   17.9708 H   0  0  0  0  0  0
   44.3059    9.1451   17.5566 H   0  0  0  0  0  0
   44.3451   11.3681   16.4268 H   0  0  0  0  0  0
   40.0316   11.2850   16.1161 H   0  0  0  0  0  0
   40.3988   12.6480   14.2865 H   0  0  0  0  0  0
   38.9423   16.0841   13.6664 H   0  0  0  0  0  0
   40.3766   16.7760   14.4985 H   0  0  0  0  0  0
   39.0307    8.8195   16.5505 H   0  0  0  0  0  0
   35.9522    7.9912   18.2910 H   0  0  0  0  0  0
   36.8232    6.7927   19.3187 H   0  0  0  0  0  0
   37.6369    9.5615   18.4578 H   0  0  0  0  0  0
   37.8439    8.6972   20.0481 H   0  0  0  0  0  0
   40.0150    8.6986   19.3866 H   0  0  0  0  0  0
   40.6156    6.5778   18.1944 H   0  0  0  0  0  0
   39.4564    6.3836   19.5836 H   0  0  0  0  0  0
   38.2546    5.1285   18.1577 H   0  0  0  0  0  0
   39.1183    5.8169   16.7052 H   0  0  0  0  0  0
   35.3411    5.1187   14.6002 H   0  0  0  0  0  0
   35.2251    6.9110   14.8585 H   0  0  0  0  0  0
   40.4216    6.7352   12.2200 H   0  0  0  0  0  0
   39.1385    8.7147   13.0413 H   0  0  0  0  0  0
   37.0180    8.3849   14.3188 H   0  0  0  0  0  0
   37.4554    4.0962   13.9389 H   0  0  0  0  0  0
   39.5787    4.4257   12.6652 H   0  0  0  0  0  0
  1 20  1  0  0  0
  1  2  2  0  0  0
  1  6  1  0  0  0
  2  3  1  0  0  0
  2 37  1  0  0  0
  3  4  2  0  0  0
  3 38  1  0  0  0
  4  5  1  0  0  0
  4 39  1  0  0  0
  5  6  2  0  0  0
  5  7  1  0  0  0
  6 40  1  0  0  0
  7  8  1  0  0  0
  7 11  2  0  0  0
  8  9  1  0  0  0
  9 10  2  0  0  0
  9 12  1  0  0  0
 10 11  1  0  0  0
 10 15  1  0  0  0
 11 41  1  0  0  0
 12 13  1  0  0  0
 12 14  2  0  0  0
 15 16  1  0  0  0
 16 17  1  0  0  0
 16 42  1  0  0  0
 16 43  1  0  0  0
 17 18  1  0  0  0
 17 19  2  0  0  0
 20 24  1  0  0  0
 20 44  1  0  0  0
 21 26  1  0  0  0
 21 22  1  0  0  0
 21 27  1  0  0  0
 22 23  1  0  0  0
 22 45  1  0  0  0
 22 46  1  0  0  0
 23 24  1  0  0  0
 23 47  1  0  0  0
 23 48  1  0  0  0
 24 25  1  0  0  0
 24 49  1  0  0  0
 25 26  1  0  0  0
 25 50  1  0  0  0
 25 51  1  0  0  0
 26 52  1  0  0  0
 26 53  1  0  0  0
 27 28  2  0  0  0
 27 29  2  0  0  0
 27 30  1  0  0  0
 30 34  1  0  0  0
 30 54  1  0  0  0
 30 55  1  0  0  0
 31 36  2  0  0  0
 31 32  1  0  0  0
 31 56  1  0  0  0
 32 33  2  0  0  0
 32 57  1  0  0  0
 33 34  1  0  0  0
 33 58  1  0  0  0
 34 35  2  0  0  0
 35 36  1  0  0  0
 35 59  1  0  0  0
 36 60  1  0  0  0
M  CHG  2  13  -1  18  -1
M  END
> <s_m_entry_id>
1669

> <MODEL>
1

> <REMARK>
 VINA RESULT:    -8.168      0.000      0.000
 INTER + INTRA:         -14.724
 INTER:                 -13.415
 INTRA:                  -1.309
 UNBOUND:                -1.781
  Name = /scratch/kmzp800/tmpgvn3jsh3/tmpwor4pgs6.pdb
  10 active torsions:
  status: ('A' for Active; 'I' for Inactive)
    1  A    between atoms: C4_4  and  C5_5
    2  A    between atoms: C5_5  and  S1_6
    3  A    between atoms: S1_6  and  N1_9
    4  A    between atoms: C8_12  and  N2_13
    5  A    between atoms: N2_13  and  C9_14
    6  A    between atoms: C13_18  and  C14_19
    7  A    between atoms: C15_21  and  C16_22
    8  A    between atoms: C17_25  and  O5_26
    9  A    between atoms: O5_26  and  C18_27
   10  A    between atoms: C18_27  and  C19_28
                            x       y       z     vdW  Elec       q    Type
                         _______ _______ _______ _____ _____    ______ ____

> <TORSDO>
F 10

> <grid_id>
ptp1b-prepared

> <grid_path>
ptp1b_vina.pdbqt

> <grid_filename>
ptp1b_vina.pdbqt

> <docking_score>
-8.168

> <compound_name>
lig_23484

> <index_string>
20:0:0

> <s_m_Source_Path>
/projects/mai/users/kmzp800_harry/pmx_colab/docking_jobs

> <s_m_Source_File>
ptp1b_vina_mcs_confs.sdf

> <i_m_Source_File_Index>
20

> <s_m_entry_id>
1237

> <s_m_Source_Path>
/projects/mai/users/kmzp800_harry/pmx_colab/docking_jobs/ptp1b

> <s_m_Source_File>
ptp1b_confs_vina_mcs.sdf

> <i_m_Source_File_Index>
21

$$$$
lig_20670_2qbs
                    3D
 Schrodinger Suite 2021-4.
 45 47  0  0  1  0            999 V2000
   42.3710    8.8570   16.9890 C   0  0  0  0  0  0
   42.7800   10.1880   16.8910 C   0  0  0  0  0  0
   42.0610   11.1010   16.1070 C   0  0  0  0  0  0
   40.9120   10.6570   15.4370 C   0  0  0  0  0  0
   40.4930    9.3220   15.5330 C   0  0  0  0  0  0
   41.2290    8.4240   16.3100 C   0  0  0  0  0  0
   42.4600   12.5250   16.0080 C   0  0  0  0  0  0
   43.4210   13.3010   17.1550 S   0  0  0  0  0  0
   43.4450   14.8060   16.4190 C   0  0  0  0  0  0
   42.7030   14.7370   15.2420 C   0  0  0  0  0  0
   42.1290   13.4590   15.0120 C   0  0  0  0  0  0
   40.8720   13.1020   13.5990 Br  0  0  0  0  0  0
   44.1570   15.9820   16.9420 C   0  0  0  0  0  0
   44.9730   16.6010   16.2090 O   0  0  0  0  0  0
   43.9390   16.4230   18.2410 O   0  5  0  0  0  0
   42.5550   15.8580   14.4140 O   0  0  0  0  0  0
   41.4590   16.7610   14.4760 C   0  0  0  0  0  0
   41.0360   17.1490   13.1010 C   0  0  0  0  0  0
   41.1550   16.3300   12.1530 O   0  0  0  0  0  0
   40.4710   18.3960   12.8730 O   0  5  0  0  0  0
   39.3260    8.8590   14.8460 N   0  0  0  0  0  0
   38.9740    7.4520   14.7140 C   0  0  0  0  0  0
   37.5080    7.2460   15.1230 C   0  0  0  0  0  0
   36.5780    7.2540   13.9120 C   0  0  0  0  0  0
   36.9270    6.1220   12.9350 C   0  0  0  0  0  0
   38.4200    5.7660   12.9160 C   0  0  0  0  0  0
   39.2830    6.9670   13.2870 C   0  0  0  0  0  0
   42.9481    8.1484   17.6012 H   0  0  0  0  0  0
   43.6755   10.5238   17.4344 H   0  0  0  0  0  0
   40.3314   11.3654   14.8278 H   0  0  0  0  0  0
   40.9090    7.3744   16.3874 H   0  0  0  0  0  0
   40.6172   16.2764   14.9923 H   0  0  0  0  0  0
   41.7665   17.6628   15.0257 H   0  0  0  0  0  0
   38.7009    9.5591   14.4217 H   0  0  0  0  0  0
   39.5832    6.8372   15.3929 H   0  0  0  0  0  0
   37.4141    6.2787   15.6383 H   0  0  0  0  0  0
   37.2167    8.0749   15.7849 H   0  0  0  0  0  0
   35.5410    7.1244   14.2553 H   0  0  0  0  0  0
   36.6967    8.2142   13.3886 H   0  0  0  0  0  0
   36.3592    5.2254   13.2243 H   0  0  0  0  0  0
   36.6663    6.4744   11.9261 H   0  0  0  0  0  0
   38.6041    4.9564   13.6376 H   0  0  0  0  0  0
   38.6874    5.4490   11.8972 H   0  0  0  0  0  0
   39.0840    7.7848   12.5787 H   0  0  0  0  0  0
   40.3397    6.6648   13.2421 H   0  0  0  0  0  0
  1  2  2  0  0  0
  1  6  1  0  0  0
  1 28  1  0  0  0
  2  3  1  0  0  0
  2 29  1  0  0  0
  3  4  2  0  0  0
  3  7  1  0  0  0
  4  5  1  0  0  0
  4 30  1  0  0  0
  5  6  2  0  0  0
  5 21  1  0  0  0
  6 31  1  0  0  0
  7  8  1  0  0  0
  7 11  2  0  0  0
  8  9  1  0  0  0
  9 13  1  0  0  0
  9 10  2  0  0  0
 10 11  1  0  0  0
 10 16  1  0  0  0
 11 12  1  0  0  0
 13 15  1  0  0  0
 13 14  2  0  0  0
 16 17  1  0  0  0
 17 18  1  0  0  0
 17 32  1  0  0  0
 17 33  1  0  0  0
 18 19  2  0  0  0
 18 20  1  0  0  0
 21 22  1  0  0  0
 21 34  1  0  0  0
 22 23  1  0  0  0
 22 27  1  0  0  0
 22 35  1  0  0  0
 23 24  1  0  0  0
 23 36  1  0  0  0
 23 37  1  0  0  0
 24 25  1  0  0  0
 24 38  1  0  0  0
 24 39  1  0  0  0
 25 26  1  0  0  0
 25 40  1  0  0  0
 25 41  1  0  0  0
 26 27  1  0  0  0
 26 42  1  0  0  0
 26 43  1  0  0  0
 27 44  1  0  0  0
 27 45  1  0  0  0
M  CHG  2  15  -1  20  -1
M  END
> <s_m_entry_id>
1670

> <MODEL>
2

> <REMARK>
 VINA RESULT:    -6.872      4.498      7.740
 INTER + INTRA:         -10.778
 INTER:                 -10.451
 INTRA:                  -0.327
 UNBOUND:                -1.093
  Name = /scratch/kmzp800/tmp5lrenckb/tmpbu422txn.pdb
  7 active torsions:
  status: ('A' for Active; 'I' for Inactive)
    1  A    between atoms: C3_3  and  C4_4
    2  A    between atoms: C5_6  and  C6_7
    3  A    between atoms: C7_10  and  O3_11
    4  A    between atoms: O3_11  and  C8_12
    5  A    between atoms: C8_12  and  C9_13
    6  A    between atoms: C12_19  and  N1_20
    7  A    between atoms: N1_20  and  C13_21
                            x       y       z     vdW  Elec       q    Type
                         _______ _______ _______ _____ _____    ______ ____

> <TORSDO>
F 7

> <grid_id>
ptp1b-prepared

> <grid_path>
ptp1b_vina.pdbqt

> <grid_filename>
ptp1b_vina.pdbqt

> <docking_score>
-6.872

> <compound_name>
lig_20670_2qbs

> <index_string>
21:0:1

> <s_m_Source_Path>
/projects/mai/users/kmzp800_harry/pmx_colab/docking_jobs

> <s_m_Source_File>
ptp1b_vina_mcs_confs.sdf

> <i_m_Source_File_Index>
21

> <s_m_entry_id>
1238

> <s_m_Source_Path>
/projects/mai/users/kmzp800_harry/pmx_colab/docking_jobs/ptp1b

> <s_m_Source_File>
ptp1b_confs_vina_mcs.sdf

> <i_m_Source_File_Index>
22

$$$$
lig_23466
                    3D
 Schrodinger Suite 2021-4.
 29 30  0  0  1  0            999 V2000
   42.3500   12.7470   15.8340 C   0  0  0  0  0  0
   43.4210   13.4960   16.8960 S   0  0  0  0  0  0
   43.4050   15.0080   16.1720 C   0  0  0  0  0  0
   42.5470   14.9650   15.0750 C   0  0  0  0  0  0
   41.9610   13.6900   14.8660 C   0  0  0  0  0  0
   40.9130   13.2470   13.3140 Br  0  0  0  0  0  0
   42.3530    9.0990   16.8440 C   0  0  0  0  0  0
   42.7300   10.4380   16.7000 C   0  0  0  0  0  0
   41.9420   11.3260   15.9510 C   0  0  0  0  0  0
   40.7600   10.8510   15.3650 C   0  0  0  0  0  0
   40.3810    9.5130   15.5060 C   0  0  0  0  0  0
   41.1780    8.6370   16.2460 C   0  0  0  0  0  0
   39.1830    9.0450   14.9010 N   0  0  0  0  0  0
   44.1670   16.1730   16.6490 C   0  0  0  0  0  0
   44.8920   16.8210   15.8510 O   0  0  0  0  0  0
   44.0970   16.5680   17.9800 O   0  5  0  0  0  0
   42.3370   16.1000   14.2780 O   0  0  0  0  0  0
   41.2060   16.9530   14.3840 C   0  0  0  0  0  0
   40.6750   17.2710   13.0280 C   0  0  0  0  0  0
   41.4670   17.4360   12.0640 O   0  0  0  0  0  0
   39.3040   17.3480   12.8210 O   0  5  0  0  0  0
   42.9812    8.4101   17.4277 H   0  0  0  0  0  0
   43.6526   10.7987   17.1781 H   0  0  0  0  0  0
   40.1242   11.5387   14.7881 H   0  0  0  0  0  0
   40.8808    7.5838   16.3580 H   0  0  0  0  0  0
   38.9045    8.0589   15.0054 H   0  0  0  0  0  0
   38.5934    9.6920   14.3582 H   0  0  0  0  0  0
   40.4244   16.4494   14.9718 H   0  0  0  0  0  0
   41.5052   17.8873   14.8815 H   0  0  0  0  0  0
  1  9  1  0  0  0
  1  2  1  0  0  0
  1  5  2  0  0  0
  2  3  1  0  0  0
  3 14  1  0  0  0
  3  4  2  0  0  0
  4  5  1  0  0  0
  4 17  1  0  0  0
  5  6  1  0  0  0
  7  8  2  0  0  0
  7 12  1  0  0  0
  7 22  1  0  0  0
  8  9  1  0  0  0
  8 23  1  0  0  0
  9 10  2  0  0  0
 10 11  1  0  0  0
 10 24  1  0  0  0
 11 12  2  0  0  0
 11 13  1  0  0  0
 12 25  1  0  0  0
 13 26  1  0  0  0
 13 27  1  0  0  0
 14 16  1  0  0  0
 14 15  2  0  0  0
 17 18  1  0  0  0
 18 19  1  0  0  0
 18 28  1  0  0  0
 18 29  1  0  0  0
 19 20  2  0  0  0
 19 21  1  0  0  0
M  CHG  2  16  -1  21  -1
M  END
> <s_m_entry_id>
1671

> <MODEL>
2

> <REMARK>
 VINA RESULT:    -6.440      2.164      2.600
 INTER + INTRA:          -9.226
 INTER:                  -9.157
 INTRA:                  -0.069
 UNBOUND:                -0.715
  Name = /scratch/kmzp800/tmps96yr451/tmpe2me2gxm.pdb
  6 active torsions:
  status: ('A' for Active; 'I' for Inactive)
    1  A    between atoms: C3_3  and  C4_4
    2  A    between atoms: C5_6  and  C6_7
    3  A    between atoms: C7_10  and  O3_11
    4  A    between atoms: O3_11  and  C8_12
    5  A    between atoms: C8_12  and  C9_13
    6  A    between atoms: C12_19  and  N1_20
                            x       y       z     vdW  Elec       q    Type
                         _______ _______ _______ _____ _____    ______ ____

> <TORSDO>
F 6

> <grid_id>
ptp1b-prepared

> <grid_path>
ptp1b_vina.pdbqt

> <grid_filename>
ptp1b_vina.pdbqt

> <docking_score>
-6.44

> <compound_name>
lig_23466

> <index_string>
22:0:1

> <s_m_Source_Path>
/projects/mai/users/kmzp800_harry/pmx_colab/docking_jobs

> <s_m_Source_File>
ptp1b_vina_mcs_confs.sdf

> <i_m_Source_File_Index>
22

> <s_m_entry_id>
1239

> <s_m_Source_Path>
/projects/mai/users/kmzp800_harry/pmx_colab/docking_jobs/ptp1b

> <s_m_Source_File>
ptp1b_confs_vina_mcs.sdf

> <i_m_Source_File_Index>
23

$$$$
