lig_20667_2qbp
                    3D
 Schrodinger Suite 2021-4.
 60 63  0  0  1  0            999 V2000
   39.1881   17.4970   12.6684 O   0  0  0  0  0  0
   40.3632   17.0672   12.6903 C   0  0  0  0  0  0
   41.2223   17.3058   11.8082 O   0  5  0  0  0  0
   40.7606   16.1491   13.8464 C   0  0  0  0  0  0
   42.1255   15.7530   13.7526 O   0  0  0  0  0  0
   42.5161   14.9354   14.7540 C   0  0  0  0  0  0
   42.1486   13.5740   14.8867 C   0  0  0  0  0  0
   41.1699   12.6858   13.5366 Br  0  0  0  0  0  0
   42.5885   12.9437   16.0144 C   0  0  0  0  0  0
   42.3335   11.5927   16.4936 C   0  0  0  0  0  0
   43.3845   10.7848   16.9731 C   0  0  0  0  0  0
   43.1221    9.4724   17.4032 C   0  0  0  0  0  0
   41.8163    8.9513   17.3387 C   0  0  0  0  0  0
   40.7583    9.7442   16.8483 C   0  0  0  0  0  0
   39.4559    9.2520   16.6666 N   0  0  0  0  0  0
   39.2650    7.8316   16.3884 C   0  0  0  0  0  0
   37.7695    7.4727   16.3988 C   0  0  0  0  0  0
   37.5695    5.9721   16.1257 C   0  0  0  0  0  0
   38.2135    5.6196   14.8491 N   0  0  3  0  0  0
   37.3112    5.0515   13.4872 S   0  0  0  0  0  0
   35.8901    5.3650   13.7056 O   0  0  0  0  0  0
   37.9945    5.5204   12.2707 O   0  0  0  0  0  0
   37.5300    3.2323   13.6199 C   0  0  0  0  0  0
   36.9176    2.5520   12.4112 C   0  0  0  0  0  0
   35.5427    2.2227   12.4057 C   0  0  0  0  0  0
   34.9780    1.5718   11.2916 C   0  0  0  0  0  0
   35.7819    1.2478   10.1807 C   0  0  0  0  0  0
   37.1506    1.5845   10.1807 C   0  0  0  0  0  0
   37.7174    2.2348   11.2939 C   0  0  0  0  0  0
   39.6497    5.9207   14.7616 C   0  0  0  0  0  0
   39.8840    7.4140   15.0305 C   0  0  0  0  0  0
   41.0244   11.0662   16.4485 C   0  0  0  0  0  0
   43.6045   14.0165   16.9246 S   0  0  0  0  0  0
   43.3461   15.3136   15.7735 C   0  0  0  0  0  0
   44.0057   16.5884   16.0470 C   0  0  0  0  0  0
   43.8359   17.5495   15.2611 O   0  0  0  0  0  0
   44.7432   16.6863   17.0509 O   0  5  0  0  0  0
   40.5708   16.6480   14.7978 H   0  0  0  0  0  0
   40.1396   15.2637   13.7916 H   0  0  0  0  0  0
   44.3897   11.1755   17.0079 H   0  0  0  0  0  0
   43.9243    8.8533   17.7755 H   0  0  0  0  0  0
   41.6593    7.9319   17.6700 H   0  0  0  0  0  0
   38.8269    9.8797   16.1770 H   0  0  0  0  0  0
   39.7197    7.2437   17.1880 H   0  0  0  0  0  0
   37.3338    7.7295   17.3617 H   0  0  0  0  0  0
   37.2403    8.0550   15.6454 H   0  0  0  0  0  0
   38.0215    5.3865   16.9277 H   0  0  0  0  0  0
   36.5094    5.7265   16.1043 H   0  0  0  0  0  0
   38.5944    3.0214   13.6787 H   0  0  0  0  0  0
   37.0663    2.8876   14.5444 H   0  0  0  0  0  0
   34.9170    2.4592   13.2537 H   0  0  0  0  0  0
   33.9261    1.3219   11.2894 H   0  0  0  0  0  0
   35.3517    0.7430    9.3284 H   0  0  0  0  0  0
   37.7566    1.3367    9.3205 H   0  0  0  0  0  0
   38.7722    2.4775   11.2939 H   0  0  0  0  0  0
   40.1808    5.3207   15.5045 H   0  0  0  0  0  0
   40.0496    5.6298   13.7875 H   0  0  0  0  0  0
   39.4476    8.0012   14.2196 H   0  0  0  0  0  0
   40.9586    7.6050   15.0050 H   0  0  0  0  0  0
   40.2213   11.6813   16.0699 H   0  0  0  0  0  0
  1  2  2  0  0  0
  2  3  1  0  0  0
  2  4  1  0  0  0
  4  5  1  0  0  0
  4 38  1  0  0  0
  4 39  1  0  0  0
  5  6  1  0  0  0
  6  7  1  0  0  0
  6 34  2  0  0  0
  7  8  1  0  0  0
  7  9  2  0  0  0
  9 10  1  0  0  0
  9 33  1  0  0  0
 10 11  2  0  0  0
 10 32  1  0  0  0
 11 12  1  0  0  0
 11 40  1  0  0  0
 12 13  2  0  0  0
 12 41  1  0  0  0
 13 14  1  0  0  0
 13 42  1  0  0  0
 14 15  1  0  0  0
 14 32  2  0  0  0
 15 16  1  0  0  0
 15 43  1  0  0  0
 16 17  1  0  0  0
 16 31  1  0  0  0
 16 44  1  0  0  0
 17 18  1  0  0  0
 17 45  1  0  0  0
 17 46  1  0  0  0
 18 19  1  0  0  0
 18 47  1  0  0  0
 18 48  1  0  0  0
 19 20  1  0  0  0
 19 30  1  0  0  0
 20 21  2  0  0  0
 20 22  2  0  0  0
 20 23  1  0  0  0
 23 24  1  0  0  0
 23 49  1  0  0  0
 23 50  1  0  0  0
 24 25  2  0  0  0
 24 29  1  0  0  0
 25 26  1  0  0  0
 25 51  1  0  0  0
 26 27  2  0  0  0
 26 52  1  0  0  0
 27 28  1  0  0  0
 27 53  1  0  0  0
 28 29  2  0  0  0
 28 54  1  0  0  0
 29 55  1  0  0  0
 30 31  1  0  0  0
 30 56  1  0  0  0
 30 57  1  0  0  0
 31 58  1  0  0  0
 31 59  1  0  0  0
 32 60  1  0  0  0
 33 34  1  0  0  0
 34 35  1  0  0  0
 35 36  2  0  0  0
 35 37  1  0  0  0
M  CHG  2   3  -1  37  -1
M  END
> <s_m_entry_id>
517

> <s_m_Source_Path>
/projects/mai/users/kmzp800_harry/pmx_colab/docking_jobs/ptp1b/glide-dock_SP_ptp1b_mcs_2

> <s_m_Source_File>
glide-dock_SP_ptp1b_mcs_2_pv.maegz

> <i_m_Source_File_Index>
2

> <r_i_docking_score>
-7.52988587094113

> <r_i_glide_gscore>
-7.52988587094113

> <r_i_glide_emodel>
-104.833519121902

$$$$
lig_23485
                    3D
 Schrodinger Suite 2021-4.
 63 66  0  0  1  0            999 V2000
   41.3829   12.8324   13.7680 C   0  0  0  0  0  0
   42.1573   13.5502   14.8388 C   0  0  0  0  0  0
   42.5257   14.9202   14.7435 C   0  0  0  0  0  0
   42.1285   15.7445   13.7467 O   0  0  0  0  0  0
   40.7671   16.1410   13.8483 C   0  0  0  0  0  0
   40.3661   17.0643   12.6943 C   0  0  0  0  0  0
   39.1878   17.4872   12.6744 O   0  0  0  0  0  0
   41.2241   17.3118   11.8171 O   0  5  0  0  0  0
   43.3553   15.3037   15.7650 C   0  0  0  0  0  0
   44.0160   16.5789   16.0512 C   0  0  0  0  0  0
   43.8449   17.5395   15.2690 O   0  0  0  0  0  0
   44.7444   16.6858   17.0579 O   0  5  0  0  0  0
   43.6058   14.0117   16.9139 S   0  0  0  0  0  0
   42.5986   12.9463   15.9877 C   0  0  0  0  0  0
   42.3373   11.5978   16.4800 C   0  0  0  0  0  0
   43.3835   10.7829   16.9625 C   0  0  0  0  0  0
   43.1213    9.4655   17.3793 C   0  0  0  0  0  0
   41.8169    8.9412   17.2953 C   0  0  0  0  0  0
   40.7560    9.7456   16.8235 C   0  0  0  0  0  0
   39.4625    9.2534   16.5804 N   0  0  0  0  0  0
   39.2734    7.8275   16.3080 C   0  0  0  0  0  0
   37.7780    7.4959   16.1673 C   0  0  0  0  0  0
   37.5575    6.0005   15.8752 C   0  0  0  0  0  0
   38.3247    5.5881   14.6871 N   0  0  1  0  0  0
   37.5318    5.5168   13.1419 S   0  0  0  0  0  0
   36.4897    6.5546   13.1204 O   0  0  0  0  0  0
   38.5649    5.4892   12.0966 O   0  0  0  0  0  0
   36.7176    3.8614   13.2203 C   0  0  0  0  0  0
   37.1315    3.0016   12.0364 C   0  0  0  0  0  0
   36.4535    3.1187   10.8051 C   0  0  0  0  0  0
   36.8251    2.3083    9.7140 C   0  0  0  0  0  0
   37.8769    1.3798    9.8525 C   0  0  0  0  0  0
   38.5658    1.2701   11.0746 C   0  0  0  0  0  0
   38.1930    2.0788   12.1661 C   0  0  0  0  0  0
   39.7655    5.8790   14.7612 C   0  0  0  0  0  0
   39.9940    7.3754   15.0194 C   0  0  0  0  0  0
   41.0263   11.0737   16.4442 C   0  0  0  0  0  0
   40.3602   12.6125   14.0842 H   0  0  0  0  0  0
   41.3155   13.4252   12.8524 H   0  0  0  0  0  0
   41.8660   11.8885   13.4992 H   0  0  0  0  0  0
   40.5920   16.6539   14.7957 H   0  0  0  0  0  0
   40.1429   15.2560   13.8126 H   0  0  0  0  0  0
   44.3933   11.1664   17.0006 H   0  0  0  0  0  0
   43.9253    8.8455   17.7487 H   0  0  0  0  0  0
   41.6505    7.9169   17.5924 H   0  0  0  0  0  0
   38.9205    9.8566   15.9778 H   0  0  0  0  0  0
   39.6587    7.2611   17.1577 H   0  0  0  0  0  0
   37.2502    7.7750   17.0786 H   0  0  0  0  0  0
   37.3411    8.0888   15.3650 H   0  0  0  0  0  0
   37.8823    5.4071   16.7327 H   0  0  0  0  0  0
   36.5000    5.7798   15.7234 H   0  0  0  0  0  0
   37.0008    3.3859   14.1594 H   0  0  0  0  0  0
   35.6385    4.0108   13.2433 H   0  0  0  0  0  0
   35.6409    3.8218   10.6959 H   0  0  0  0  0  0
   36.3018    2.3911    8.7735 H   0  0  0  0  0  0
   38.1575    0.7453    9.0256 H   0  0  0  0  0  0
   39.3680    0.5521   11.1734 H   0  0  0  0  0  0
   38.7175    1.9833   13.1045 H   0  0  0  0  0  0
   40.1978    5.2983   15.5767 H   0  0  0  0  0  0
   40.2749    5.5585   13.8527 H   0  0  0  0  0  0
   39.6388    7.9558   14.1668 H   0  0  0  0  0  0
   41.0664    7.5513   15.0889 H   0  0  0  0  0  0
   40.2182   11.6898   16.0779 H   0  0  0  0  0  0
  1  2  1  0  0  0
  1 38  1  0  0  0
  1 39  1  0  0  0
  1 40  1  0  0  0
  2  3  1  0  0  0
  2 14  2  0  0  0
  3  4  1  0  0  0
  3  9  2  0  0  0
  4  5  1  0  0  0
  5  6  1  0  0  0
  5 41  1  0  0  0
  5 42  1  0  0  0
  6  7  2  0  0  0
  6  8  1  0  0  0
  9 10  1  0  0  0
  9 13  1  0  0  0
 10 11  2  0  0  0
 10 12  1  0  0  0
 13 14  1  0  0  0
 14 15  1  0  0  0
 15 16  2  0  0  0
 15 37  1  0  0  0
 16 17  1  0  0  0
 16 43  1  0  0  0
 17 18  2  0  0  0
 17 44  1  0  0  0
 18 19  1  0  0  0
 18 45  1  0  0  0
 19 20  1  0  0  0
 19 37  2  0  0  0
 20 21  1  0  0  0
 20 46  1  0  0  0
 21 22  1  0  0  0
 21 36  1  0  0  0
 21 47  1  0  0  0
 22 23  1  0  0  0
 22 48  1  0  0  0
 22 49  1  0  0  0
 23 24  1  0  0  0
 23 50  1  0  0  0
 23 51  1  0  0  0
 24 25  1  0  0  0
 24 35  1  0  0  0
 25 26  2  0  0  0
 25 27  2  0  0  0
 25 28  1  0  0  0
 28 29  1  0  0  0
 28 52  1  0  0  0
 28 53  1  0  0  0
 29 30  2  0  0  0
 29 34  1  0  0  0
 30 31  1  0  0  0
 30 54  1  0  0  0
 31 32  2  0  0  0
 31 55  1  0  0  0
 32 33  1  0  0  0
 32 56  1  0  0  0
 33 34  2  0  0  0
 33 57  1  0  0  0
 34 58  1  0  0  0
 35 36  1  0  0  0
 35 59  1  0  0  0
 35 60  1  0  0  0
 36 61  1  0  0  0
 36 62  1  0  0  0
 37 63  1  0  0  0
M  CHG  2   8  -1  12  -1
M  END
> <s_m_entry_id>
518

> <s_m_Source_Path>
/projects/mai/users/kmzp800_harry/pmx_colab/docking_jobs/ptp1b/glide-dock_SP_ptp1b_mcs_2

> <s_m_Source_File>
glide-dock_SP_ptp1b_mcs_2_pv.maegz

> <i_m_Source_File_Index>
3

> <r_i_docking_score>
-7.52066552010877

> <r_i_glide_gscore>
-7.52066552010877

> <r_i_glide_emodel>
-110.433036285663

$$$$
lig_23480
                    3D
 Schrodinger Suite 2021-4.
 53 55  0  0  1  0            999 V2000
   39.2011   17.5418   12.6889 O   0  0  0  0  0  0
   40.3616   17.0680   12.6885 C   0  0  0  0  0  0
   41.2286   17.3057   11.8096 O   0  5  0  0  0  0
   40.7613   16.1469   13.8375 C   0  0  0  0  0  0
   42.1240   15.7439   13.7444 O   0  0  0  0  0  0
   42.5300   14.9268   14.7453 C   0  0  0  0  0  0
   42.1786   13.5618   14.8781 C   0  0  0  0  0  0
   41.1842   12.6861   13.5506 Br  0  0  0  0  0  0
   42.6193   12.9357   16.0081 C   0  0  0  0  0  0
   42.3498   11.5856   16.4755 C   0  0  0  0  0  0
   43.3831   10.7698   16.9778 C   0  0  0  0  0  0
   43.1032    9.4716   17.4114 C   0  0  0  0  0  0
   41.7983    8.9658   17.3557 C   0  0  0  0  0  0
   40.7509    9.7575   16.8519 C   0  0  0  0  0  0
   39.4476    9.2622   16.7815 N   0  0  0  0  0  0
   39.2398    7.8664   16.3827 C   0  0  0  0  0  0
   41.0361   11.0709   16.4258 C   0  0  0  0  0  0
   43.6464   14.0134   16.9147 S   0  0  0  0  0  0
   43.3636   15.3106   15.7644 C   0  0  0  0  0  0
   44.0166   16.5987   16.0525 C   0  0  0  0  0  0
   43.8381   17.5652   15.2668 O   0  0  0  0  0  0
   44.7517   16.6806   17.0593 O   0  5  0  0  0  0
   40.5623   16.6355   14.7945 H   0  0  0  0  0  0
   40.1365   15.2592   13.7960 H   0  0  0  0  0  0
   44.3860   11.1528   17.0361 H   0  0  0  0  0  0
   43.8941    8.8601   17.8222 H   0  0  0  0  0  0
   41.6018    7.9743   17.7200 H   0  0  0  0  0  0
   38.7379    9.9092   16.4757 H   0  0  0  0  0  0
   40.1240    7.2687   16.5682 H   0  0  0  0  0  0
   38.4684    7.4539   17.0232 H   0  0  0  0  0  0
   40.2455   11.6996   16.0519 H   0  0  0  0  0  0
   39.5347    8.3139   14.3203 H   0  0  0  0  0  0
   38.4420    6.0565   13.0449 C   0  0  0  0  0  0
   38.9444    6.2482   14.4805 C   0  0  0  0  0  0
   38.8326    7.7250   14.9151 C   0  0  0  0  0  0
   37.3993    8.2489   14.6951 C   0  0  0  0  0  0
   36.9304    8.0072   13.2501 C   0  0  0  0  0  0
   37.0841    6.5882   12.9081 N   0  0  0  0  0  0
   39.0869    6.6020   12.3529 H   0  0  0  0  0  0
   38.5178    5.0026   12.7853 H   0  0  0  0  0  0
   39.9818    5.9130   14.5652 H   0  0  0  0  0  0
   38.3555    5.6307   15.1628 H   0  0  0  0  0  0
   36.7188    7.7583   15.3922 H   0  0  0  0  0  0
   37.3459    9.3108   14.9236 H   0  0  0  0  0  0
   37.4910    8.6408   12.5654 H   0  0  0  0  0  0
   35.8902    8.3213   13.1575 H   0  0  0  0  0  0
   36.0100    5.8199   12.4492 C   0  0  0  0  0  0
   36.2418    4.5039   12.6390 O   0  0  0  0  0  0
   34.9829    6.2678   11.9308 O   0  0  0  0  0  0
   35.2516    3.5604   12.2703 C   0  0  0  0  0  0
   35.5965    2.5592   12.5302 H   0  0  0  0  0  0
   34.3184    3.7494   12.8040 H   0  0  0  0  0  0
   35.0695    3.5980   11.1947 H   0  0  0  0  0  0
  1  2  2  0  0  0
  2  3  1  0  0  0
  2  4  1  0  0  0
  4  5  1  0  0  0
  4 23  1  0  0  0
  4 24  1  0  0  0
  5  6  1  0  0  0
  6  7  1  0  0  0
  6 19  2  0  0  0
  7  8  1  0  0  0
  7  9  2  0  0  0
  9 10  1  0  0  0
  9 18  1  0  0  0
 10 11  2  0  0  0
 10 17  1  0  0  0
 11 12  1  0  0  0
 11 25  1  0  0  0
 12 13  2  0  0  0
 12 26  1  0  0  0
 13 14  1  0  0  0
 13 27  1  0  0  0
 14 15  1  0  0  0
 14 17  2  0  0  0
 15 16  1  0  0  0
 15 28  1  0  0  0
 16 29  1  0  0  0
 16 30  1  0  0  0
 16 35  1  0  0  0
 17 31  1  0  0  0
 18 19  1  0  0  0
 19 20  1  0  0  0
 20 21  2  0  0  0
 20 22  1  0  0  0
 32 35  1  0  0  0
 33 34  1  0  0  0
 33 38  1  0  0  0
 33 39  1  0  0  0
 33 40  1  0  0  0
 34 35  1  0  0  0
 34 41  1  0  0  0
 34 42  1  0  0  0
 35 36  1  0  0  0
 36 37  1  0  0  0
 36 43  1  0  0  0
 36 44  1  0  0  0
 37 38  1  0  0  0
 37 45  1  0  0  0
 37 46  1  0  0  0
 38 47  1  0  0  0
 47 48  1  0  0  0
 47 49  2  0  0  0
 48 50  1  0  0  0
 50 51  1  0  0  0
 50 52  1  0  0  0
 50 53  1  0  0  0
M  CHG  2   3  -1  22  -1
M  END
> <s_m_entry_id>
519

> <s_m_Source_Path>
/projects/mai/users/kmzp800_harry/pmx_colab/docking_jobs/ptp1b/glide-dock_SP_ptp1b_mcs_2

> <s_m_Source_File>
glide-dock_SP_ptp1b_mcs_2_pv.maegz

> <i_m_Source_File_Index>
4

> <r_i_docking_score>
-7.27448923955593

> <r_i_glide_gscore>
-7.27448923955593

> <r_i_glide_emodel>
-95.9387912767097

$$$$
lig_23486
                    3D
 Schrodinger Suite 2021-4.
 60 63  0  0  1  0            999 V2000
   39.1981   17.5280   12.6827 O   0  0  0  0  0  0
   40.3568   17.0636   12.6881 C   0  0  0  0  0  0
   41.2185   17.3059   11.8007 O   0  5  0  0  0  0
   40.7478   16.1339   13.8316 C   0  0  0  0  0  0
   42.1123   15.7386   13.7480 O   0  0  0  0  0  0
   42.5088   14.9146   14.7475 C   0  0  0  0  0  0
   42.1449   13.5499   14.8778 C   0  0  0  0  0  0
   41.2014   12.7853   13.6954 Cl  0  0  0  0  0  0
   42.6124   12.9431   16.0072 C   0  0  0  0  0  0
   42.3454   11.5992   16.4879 C   0  0  0  0  0  0
   43.3867   10.7730   16.9502 C   0  0  0  0  0  0
   43.1125    9.4681   17.3885 C   0  0  0  0  0  0
   41.7923    8.9863   17.3536 C   0  0  0  0  0  0
   40.7419    9.7916   16.8779 C   0  0  0  0  0  0
   39.4147    9.3459   16.7962 N   0  0  0  0  0  0
   39.0697    7.9495   16.5371 C   0  0  0  0  0  0
   37.7254    7.8555   15.7748 C   0  0  0  0  0  0
   37.3214    6.3952   15.4768 C   0  0  0  0  0  0
   38.4175    5.6626   14.8179 N   0  0  3  0  0  0
   38.2573    4.9102   13.2564 S   0  0  0  0  0  0
   37.0254    5.4306   12.6419 O   0  0  0  0  0  0
   39.5386    5.0685   12.5576 O   0  0  0  0  0  0
   37.9890    3.1189   13.6639 C   0  0  0  0  0  0
   39.3012    2.3877   13.9168 C   0  0  0  0  0  0
   40.0491    2.6699   15.0763 C   0  0  0  0  0  0
   41.2968    2.0672   15.3084 C   0  0  0  0  0  0
   41.7692    1.0921   14.4145 C   0  0  0  0  0  0
   40.9946    0.7450   13.2903 C   0  0  0  0  0  0
   39.7752    1.4028   13.0252 C   0  0  0  0  0  0
   39.7339    5.7667   15.4673 C   0  0  0  0  0  0
   40.1307    7.2039   15.6918 C   0  0  0  0  0  0
   41.0256   11.1022   16.4605 C   0  0  0  0  0  0
   43.6349   14.0148   16.9115 S   0  0  0  0  0  0
   43.3498   15.3005   15.7589 C   0  0  0  0  0  0
   44.0200   16.5916   16.0412 C   0  0  0  0  0  0
   43.8365   17.5417   15.2565 O   0  0  0  0  0  0
   44.7454   16.6882   17.0472 O   0  5  0  0  0  0
   40.5266   16.6078   14.7894 H   0  0  0  0  0  0
   40.1242   15.2474   13.7565 H   0  0  0  0  0  0
   44.4045   11.1428   16.9718 H   0  0  0  0  0  0
   43.9058    8.8395   17.7604 H   0  0  0  0  0  0
   41.6101    8.0176   17.8062 H   0  0  0  0  0  0
   38.6792   10.0318   16.7500 H   0  0  0  0  0  0
   38.9507    7.4783   17.5163 H   0  0  0  0  0  0
   36.9302    8.3427   16.3371 H   0  0  0  0  0  0
   37.8103    8.3977   14.8328 H   0  0  0  0  0  0
   37.0605    5.8763   16.3997 H   0  0  0  0  0  0
   36.4352    6.3737   14.8463 H   0  0  0  0  0  0
   37.3215    3.0424   14.5217 H   0  0  0  0  0  0
   37.4832    2.6678   12.8134 H   0  0  0  0  0  0
   39.6640    3.3573   15.8030 H   0  0  0  0  0  0
   41.8696    2.3464   16.1823 H   0  0  0  0  0  0
   42.7125    0.6060   14.6066 H   0  0  0  0  0  0
   41.3511   -0.0092   12.6085 H   0  0  0  0  0  0
   39.2048    1.1427   12.1457 H   0  0  0  0  0  0
   39.7123    5.2798   16.4418 H   0  0  0  0  0  0
   40.5062    5.2898   14.8680 H   0  0  0  0  0  0
   40.3084    7.7221   14.7442 H   0  0  0  0  0  0
   41.0791    7.0760   16.1602 H   0  0  0  0  0  0
   40.2237   11.7307   16.0990 H   0  0  0  0  0  0
  1  2  2  0  0  0
  2  3  1  0  0  0
  2  4  1  0  0  0
  4  5  1  0  0  0
  4 38  1  0  0  0
  4 39  1  0  0  0
  5  6  1  0  0  0
  6  7  1  0  0  0
  6 34  2  0  0  0
  7  8  1  0  0  0
  7  9  2  0  0  0
  9 10  1  0  0  0
  9 33  1  0  0  0
 10 11  2  0  0  0
 10 32  1  0  0  0
 11 12  1  0  0  0
 11 40  1  0  0  0
 12 13  2  0  0  0
 12 41  1  0  0  0
 13 14  1  0  0  0
 13 42  1  0  0  0
 14 15  1  0  0  0
 14 32  2  0  0  0
 15 16  1  0  0  0
 15 43  1  0  0  0
 16 17  1  0  0  0
 16 31  1  0  0  0
 16 44  1  0  0  0
 17 18  1  0  0  0
 17 45  1  0  0  0
 17 46  1  0  0  0
 18 19  1  0  0  0
 18 47  1  0  0  0
 18 48  1  0  0  0
 19 20  1  0  0  0
 19 30  1  0  0  0
 20 21  2  0  0  0
 20 22  2  0  0  0
 20 23  1  0  0  0
 23 24  1  0  0  0
 23 49  1  0  0  0
 23 50  1  0  0  0
 24 25  2  0  0  0
 24 29  1  0  0  0
 25 26  1  0  0  0
 25 51  1  0  0  0
 26 27  2  0  0  0
 26 52  1  0  0  0
 27 28  1  0  0  0
 27 53  1  0  0  0
 28 29  2  0  0  0
 28 54  1  0  0  0
 29 55  1  0  0  0
 30 31  1  0  0  0
 30 56  1  0  0  0
 30 57  1  0  0  0
 31 58  1  0  0  0
 31 59  1  0  0  0
 32 60  1  0  0  0
 33 34  1  0  0  0
 34 35  1  0  0  0
 35 36  2  0  0  0
 35 37  1  0  0  0
M  CHG  2   3  -1  37  -1
M  END
> <s_m_entry_id>
520

> <s_m_Source_Path>
/projects/mai/users/kmzp800_harry/pmx_colab/docking_jobs/ptp1b/glide-dock_SP_ptp1b_mcs_2

> <s_m_Source_File>
glide-dock_SP_ptp1b_mcs_2_pv.maegz

> <i_m_Source_File_Index>
5

> <r_i_docking_score>
-7.18376470251061

> <r_i_glide_gscore>
-7.18376470251061

> <r_i_glide_emodel>
-101.275890689717

$$$$
lig_23472
                    3D
 Schrodinger Suite 2021-4.
 42 44  0  0  1  0            999 V2000
   39.1903   17.5124   12.6948 O   0  0  0  0  0  0
   40.3619   17.0683   12.6943 C   0  0  0  0  0  0
   41.2126   17.3142   11.8103 O   0  5  0  0  0  0
   40.7627   16.1437   13.8506 C   0  0  0  0  0  0
   42.1323   15.7523   13.7521 O   0  0  0  0  0  0
   42.5351   14.9310   14.7460 C   0  0  0  0  0  0
   42.1787   13.5724   14.8793 C   0  0  0  0  0  0
   41.1791   12.6859   13.5478 Br  0  0  0  0  0  0
   42.6242   12.9391   15.9999 C   0  0  0  0  0  0
   42.3449   11.5939   16.4678 C   0  0  0  0  0  0
   43.3835   10.7553   16.9280 C   0  0  0  0  0  0
   43.1120    9.4378   17.3310 C   0  0  0  0  0  0
   41.8000    8.9486   17.2695 C   0  0  0  0  0  0
   40.7420    9.7728   16.8309 C   0  0  0  0  0  0
   39.4128    9.3391   16.7771 N   0  0  0  0  0  0
   38.6985    7.8049   17.1760 S   0  0  0  0  0  0
   39.6805    7.0223   17.9507 O   0  0  0  0  0  0
   37.3846    8.1236   17.7396 O   0  0  0  0  0  0
   38.4996    7.0414   15.5743 C   0  0  0  0  0  0
   39.5685    6.3571   14.9644 C   0  0  0  0  0  0
   39.3838    5.7657   13.6948 C   0  0  0  0  0  0
   38.1345    5.8634   13.0475 C   0  0  0  0  0  0
   37.9471    5.2935   11.8383 F   0  0  0  0  0  0
   37.0736    6.5569   13.6569 C   0  0  0  0  0  0
   37.2537    7.1537   14.9204 C   0  0  0  0  0  0
   41.0278   11.0917   16.4445 C   0  0  0  0  0  0
   43.6437   14.0079   16.9116 S   0  0  0  0  0  0
   43.3742   15.3123   15.7695 C   0  0  0  0  0  0
   44.0317   16.5841   16.0496 C   0  0  0  0  0  0
   43.8739   17.5458   15.2675 O   0  0  0  0  0  0
   44.7480   16.6861   17.0682 O   0  5  0  0  0  0
   40.5573   16.6342   14.8031 H   0  0  0  0  0  0
   40.1465   15.2554   13.8213 H   0  0  0  0  0  0
   44.4008   11.1187   16.9500 H   0  0  0  0  0  0
   43.9021    8.7944   17.6821 H   0  0  0  0  0  0
   41.6499    7.9353   17.5708 H   0  0  0  0  0  0
   38.7755   10.0078   16.3778 H   0  0  0  0  0  0
   40.5318    6.2852   15.4632 H   0  0  0  0  0  0
   40.2015    5.2343   13.2294 H   0  0  0  0  0  0
   36.1219    6.6371   13.1584 H   0  0  0  0  0  0
   36.4378    7.6895   15.3914 H   0  0  0  0  0  0
   40.2247   11.7419   16.1110 H   0  0  0  0  0  0
  1  2  2  0  0  0
  2  3  1  0  0  0
  2  4  1  0  0  0
  4  5  1  0  0  0
  4 32  1  0  0  0
  4 33  1  0  0  0
  5  6  1  0  0  0
  6  7  1  0  0  0
  6 28  2  0  0  0
  7  8  1  0  0  0
  7  9  2  0  0  0
  9 10  1  0  0  0
  9 27  1  0  0  0
 10 11  2  0  0  0
 10 26  1  0  0  0
 11 12  1  0  0  0
 11 34  1  0  0  0
 12 13  2  0  0  0
 12 35  1  0  0  0
 13 14  1  0  0  0
 13 36  1  0  0  0
 14 15  1  0  0  0
 14 26  2  0  0  0
 15 16  1  0  0  0
 15 37  1  0  0  0
 16 17  2  0  0  0
 16 18  2  0  0  0
 16 19  1  0  0  0
 19 20  2  0  0  0
 19 25  1  0  0  0
 20 21  1  0  0  0
 20 38  1  0  0  0
 21 22  2  0  0  0
 21 39  1  0  0  0
 22 23  1  0  0  0
 22 24  1  0  0  0
 24 25  2  0  0  0
 24 40  1  0  0  0
 25 41  1  0  0  0
 26 42  1  0  0  0
 27 28  1  0  0  0
 28 29  1  0  0  0
 29 30  2  0  0  0
 29 31  1  0  0  0
M  CHG  2   3  -1  31  -1
M  END
> <s_m_entry_id>
521

> <s_m_Source_Path>
/projects/mai/users/kmzp800_harry/pmx_colab/docking_jobs/ptp1b/glide-dock_SP_ptp1b_mcs_2

> <s_m_Source_File>
glide-dock_SP_ptp1b_mcs_2_pv.maegz

> <i_m_Source_File_Index>
6

> <r_i_docking_score>
-6.9111264317858

> <r_i_glide_gscore>
-6.9111264317858

> <r_i_glide_emodel>
-91.8169814862567

$$$$
lig_23466
                    3D
 Schrodinger Suite 2021-4.
 29 30  0  0  1  0            999 V2000
   39.1939   17.5226   12.6830 O   0  0  0  0  0  0
   40.3611   17.0691   12.6896 C   0  0  0  0  0  0
   41.2222   17.3069   11.8124 O   0  5  0  0  0  0
   40.7468   16.1301   13.8376 C   0  0  0  0  0  0
   42.1132   15.7367   13.7437 O   0  0  0  0  0  0
   42.5220   14.9302   14.7482 C   0  0  0  0  0  0
   42.1683   13.5653   14.8805 C   0  0  0  0  0  0
   41.1765   12.6862   13.5407 Br  0  0  0  0  0  0
   42.6129   12.9370   16.0070 C   0  0  0  0  0  0
   42.3381   11.5896   16.4780 C   0  0  0  0  0  0
   41.0191   11.0907   16.4464 C   0  0  0  0  0  0
   40.7364    9.7758   16.8471 C   0  0  0  0  0  0
   41.7751    8.9542   17.3174 C   0  0  0  0  0  0
   43.0911    9.4475   17.3791 C   0  0  0  0  0  0
   44.1145    8.6395   17.8656 N   0  0  0  0  0  0
   43.3717   10.7583   16.9512 C   0  0  0  0  0  0
   43.6302   14.0142   16.9146 S   0  0  0  0  0  0
   43.3573   15.3147   15.7643 C   0  0  0  0  0  0
   44.0184   16.5887   16.0446 C   0  0  0  0  0  0
   43.8552   17.5500   15.2618 O   0  0  0  0  0  0
   44.7496   16.6861   17.0527 O   0  5  0  0  0  0
   40.5363   16.6149   14.7932 H   0  0  0  0  0  0
   40.1251   15.2431   13.7880 H   0  0  0  0  0  0
   40.2096   11.7185   16.1095 H   0  0  0  0  0  0
   39.7228    9.4092   16.7932 H   0  0  0  0  0  0
   41.5570    7.9473   17.6341 H   0  0  0  0  0  0
   43.8771    7.8001   18.3728 H   0  0  0  0  0  0
   44.3819   11.1319   16.9802 H   0  0  0  0  0  0
   44.9985    9.0647   18.1000 H   0  0  0  0  0  0
  1  2  2  0  0  0
  2  3  1  0  0  0
  2  4  1  0  0  0
  4  5  1  0  0  0
  4 22  1  0  0  0
  4 23  1  0  0  0
  5  6  1  0  0  0
  6  7  1  0  0  0
  6 18  2  0  0  0
  7  8  1  0  0  0
  7  9  2  0  0  0
  9 10  1  0  0  0
  9 17  1  0  0  0
 10 11  2  0  0  0
 10 16  1  0  0  0
 11 12  1  0  0  0
 11 24  1  0  0  0
 12 13  2  0  0  0
 12 25  1  0  0  0
 13 14  1  0  0  0
 13 26  1  0  0  0
 14 15  1  0  0  0
 14 16  2  0  0  0
 15 27  1  0  0  0
 15 29  1  0  0  0
 16 28  1  0  0  0
 17 18  1  0  0  0
 18 19  1  0  0  0
 19 20  2  0  0  0
 19 21  1  0  0  0
M  CHG  2   3  -1  21  -1
M  END
> <s_m_entry_id>
522

> <s_m_Source_Path>
/projects/mai/users/kmzp800_harry/pmx_colab/docking_jobs/ptp1b/glide-dock_SP_ptp1b_mcs_2

> <s_m_Source_File>
glide-dock_SP_ptp1b_mcs_2_pv.maegz

> <i_m_Source_File_Index>
7

> <r_i_docking_score>
-6.8639706851089

> <r_i_glide_gscore>
-6.8639706851089

> <r_i_glide_emodel>
-80.8601059190978

$$$$
lig_23474
                    3D
 Schrodinger Suite 2021-4.
 48 50  0  0  1  0            999 V2000
   39.1965   17.5444   12.6860 O   0  0  0  0  0  0
   40.3569   17.0717   12.6839 C   0  0  0  0  0  0
   41.2213   17.3099   11.8098 O   0  5  0  0  0  0
   40.7278   16.1177   13.8228 C   0  0  0  0  0  0
   42.1001   15.7384   13.7434 O   0  0  0  0  0  0
   42.5080   14.9342   14.7507 C   0  0  0  0  0  0
   42.1607   13.5662   14.8818 C   0  0  0  0  0  0
   41.1737   12.6865   13.5417 Br  0  0  0  0  0  0
   42.6071   12.9385   16.0096 C   0  0  0  0  0  0
   42.3383   11.5904   16.4812 C   0  0  0  0  0  0
   43.3742   10.7670   16.9579 C   0  0  0  0  0  0
   43.1023    9.4596   17.3868 C   0  0  0  0  0  0
   41.7900    8.9624   17.3320 C   0  0  0  0  0  0
   40.7371    9.7733   16.8555 C   0  0  0  0  0  0
   39.4079    9.3380   16.7711 N   0  0  0  0  0  0
   39.0963    7.9173   16.7219 C   0  0  0  0  0  0
   41.0229   11.0847   16.4468 C   0  0  0  0  0  0
   43.6259   14.0183   16.9141 S   0  0  0  0  0  0
   43.3446   15.3202   15.7675 C   0  0  0  0  0  0
   44.0079   16.5946   16.0445 C   0  0  0  0  0  0
   43.8365   17.5557   15.2643 O   0  0  0  0  0  0
   44.7430   16.6864   17.0504 O   0  5  0  0  0  0
   40.4769   16.5736   14.7825 H   0  0  0  0  0  0
   40.1101   15.2312   13.7299 H   0  0  0  0  0  0
   44.3834   11.1410   16.9911 H   0  0  0  0  0  0
   43.8991    8.8364   17.7594 H   0  0  0  0  0  0
   41.6203    7.9571   17.6706 H   0  0  0  0  0  0
   38.7433    9.9615   16.3397 H   0  0  0  0  0  0
   39.8648    7.3189   17.2015 H   0  0  0  0  0  0
   38.1865    7.7569   17.2971 H   0  0  0  0  0  0
   40.2221   11.7138   16.0947 H   0  0  0  0  0  0
   38.1495    8.0613   14.8230 H   0  0  0  0  0  0
   40.0279    6.9232   13.0642 C   0  0  0  0  0  0
   40.1986    7.4905   14.4801 C   0  0  0  0  0  0
   38.8905    7.4151   15.2911 C   0  0  0  0  0  0
   38.3457    5.9742   15.3135 C   0  0  0  0  0  0
   38.1716    5.4100   13.8952 C   0  0  0  0  0  0
   39.4862    5.4868   13.1045 C   0  0  0  0  0  0
   39.3487    7.5587   12.4941 H   0  0  0  0  0  0
   40.9838    6.9450   12.5405 H   0  0  0  0  0  0
   40.5383    8.5246   14.4186 H   0  0  0  0  0  0
   40.9838    6.9461   15.0058 H   0  0  0  0  0  0
   39.0279    5.3371   15.8788 H   0  0  0  0  0  0
   37.3916    5.9448   15.8435 H   0  0  0  0  0  0
   37.3924    5.9675   13.3715 H   0  0  0  0  0  0
   37.8323    4.3743   13.9478 H   0  0  0  0  0  0
   39.3275    5.1206   12.0940 H   0  0  0  0  0  0
   40.2287    4.8259   13.5567 H   0  0  0  0  0  0
  1  2  2  0  0  0
  2  3  1  0  0  0
  2  4  1  0  0  0
  4  5  1  0  0  0
  4 23  1  0  0  0
  4 24  1  0  0  0
  5  6  1  0  0  0
  6  7  1  0  0  0
  6 19  2  0  0  0
  7  8  1  0  0  0
  7  9  2  0  0  0
  9 10  1  0  0  0
  9 18  1  0  0  0
 10 11  2  0  0  0
 10 17  1  0  0  0
 11 12  1  0  0  0
 11 25  1  0  0  0
 12 13  2  0  0  0
 12 26  1  0  0  0
 13 14  1  0  0  0
 13 27  1  0  0  0
 14 15  1  0  0  0
 14 17  2  0  0  0
 15 16  1  0  0  0
 15 28  1  0  0  0
 16 29  1  0  0  0
 16 30  1  0  0  0
 16 35  1  0  0  0
 17 31  1  0  0  0
 18 19  1  0  0  0
 19 20  1  0  0  0
 20 21  2  0  0  0
 20 22  1  0  0  0
 32 35  1  0  0  0
 33 34  1  0  0  0
 33 38  1  0  0  0
 33 39  1  0  0  0
 33 40  1  0  0  0
 34 35  1  0  0  0
 34 41  1  0  0  0
 34 42  1  0  0  0
 35 36  1  0  0  0
 36 37  1  0  0  0
 36 43  1  0  0  0
 36 44  1  0  0  0
 37 38  1  0  0  0
 37 45  1  0  0  0
 37 46  1  0  0  0
 38 47  1  0  0  0
 38 48  1  0  0  0
M  CHG  2   3  -1  22  -1
M  END
> <s_m_entry_id>
523

> <s_m_Source_Path>
/projects/mai/users/kmzp800_harry/pmx_colab/docking_jobs/ptp1b/glide-dock_SP_ptp1b_mcs_2

> <s_m_Source_File>
glide-dock_SP_ptp1b_mcs_2_pv.maegz

> <i_m_Source_File_Index>
8

> <r_i_docking_score>
-6.80037608832584

> <r_i_glide_gscore>
-6.80037608832584

> <r_i_glide_emodel>
-85.877726185042

$$$$
lig_23479
                    3D
 Schrodinger Suite 2021-4.
 49 51  0  0  1  0            999 V2000
   39.1990   17.5230   12.6799 O   0  0  0  0  0  0
   40.3640   17.0640   12.6828 C   0  0  0  0  0  0
   41.2253   17.3083   11.8101 O   0  5  0  0  0  0
   40.7584   16.1446   13.8454 C   0  0  0  0  0  0
   42.1180   15.7357   13.7454 O   0  0  0  0  0  0
   42.5212   14.9255   14.7498 C   0  0  0  0  0  0
   42.1669   13.5631   14.8834 C   0  0  0  0  0  0
   41.1758   12.6866   13.5397 Br  0  0  0  0  0  0
   42.6091   12.9382   16.0109 C   0  0  0  0  0  0
   42.3388   11.5894   16.4825 C   0  0  0  0  0  0
   43.3864   10.7683   16.9459 C   0  0  0  0  0  0
   43.1265    9.4593   17.3792 C   0  0  0  0  0  0
   41.8179    8.9605   17.3412 C   0  0  0  0  0  0
   40.7582    9.7559   16.8717 C   0  0  0  0  0  0
   39.4547    9.2525   16.8446 N   0  0  0  0  0  0
   39.1912    7.8262   17.0036 C   0  0  0  0  0  0
   37.6934    7.5891   17.2413 C   0  0  0  0  0  0
   36.8765    7.9071   15.9771 C   0  0  0  0  0  0
   37.3719    7.1314   14.8312 N   0  0  0  0  0  0
   38.7960    7.3677   14.5278 C   0  0  0  0  0  0
   39.6658    7.0414   15.7598 C   0  0  0  0  0  0
   41.0210   11.0794   16.4665 C   0  0  0  0  0  0
   43.6243   14.0141   16.9243 S   0  0  0  0  0  0
   43.3522   15.3096   15.7678 C   0  0  0  0  0  0
   44.0104   16.5873   16.0458 C   0  0  0  0  0  0
   43.8425   17.5475   15.2656 O   0  0  0  0  0  0
   44.7503   16.6862   17.0476 O   0  5  0  0  0  0
   40.1264   15.2690   13.8277 H   0  0  0  0  0  0
   40.5799   16.6589   14.7967 H   0  0  0  0  0  0
   44.3993   11.1417   16.9732 H   0  0  0  0  0  0
   43.9268    8.8303   17.7446 H   0  0  0  0  0  0
   41.6459    7.9448   17.6733 H   0  0  0  0  0  0
   38.6643    9.8748   16.7310 H   0  0  0  0  0  0
   39.7338    7.4811   17.8813 H   0  0  0  0  0  0
   37.3499    8.2007   18.0772 H   0  0  0  0  0  0
   37.5274    6.5536   17.5331 H   0  0  0  0  0  0
   36.9422    8.9699   15.7377 H   0  0  0  0  0  0
   35.8267    7.7250   16.1915 H   0  0  0  0  0  0
   39.1536    6.7716   13.6858 H   0  0  0  0  0  0
   38.9396    8.4080   14.2363 H   0  0  0  0  0  0
   39.6221    5.9734   15.9701 H   0  0  0  0  0  0
   40.7158    7.2599   15.5500 H   0  0  0  0  0  0
   40.2213   11.7128   16.1237 H   0  0  0  0  0  0
   35.1394    6.0774   14.5182 C   0  0  0  0  0  0
   36.5920    6.3010   14.0938 C   0  0  0  0  0  0
   36.9957    5.7147   13.0888 O   0  0  0  0  0  0
   35.0897    5.6840   15.5331 H   0  0  0  0  0  0
   34.6446    5.3640   13.8592 H   0  0  0  0  0  0
   34.5838    7.0145   14.4710 H   0  0  0  0  0  0
  1  2  2  0  0  0
  2  3  1  0  0  0
  2  4  1  0  0  0
  4  5  1  0  0  0
  4 28  1  0  0  0
  4 29  1  0  0  0
  5  6  1  0  0  0
  6  7  1  0  0  0
  6 24  2  0  0  0
  7  8  1  0  0  0
  7  9  2  0  0  0
  9 10  1  0  0  0
  9 23  1  0  0  0
 10 11  2  0  0  0
 10 22  1  0  0  0
 11 12  1  0  0  0
 11 30  1  0  0  0
 12 13  2  0  0  0
 12 31  1  0  0  0
 13 14  1  0  0  0
 13 32  1  0  0  0
 14 15  1  0  0  0
 14 22  2  0  0  0
 15 16  1  0  0  0
 15 33  1  0  0  0
 16 17  1  0  0  0
 16 21  1  0  0  0
 16 34  1  0  0  0
 17 18  1  0  0  0
 17 35  1  0  0  0
 17 36  1  0  0  0
 18 19  1  0  0  0
 18 37  1  0  0  0
 18 38  1  0  0  0
 19 20  1  0  0  0
 19 45  1  0  0  0
 20 21  1  0  0  0
 20 39  1  0  0  0
 20 40  1  0  0  0
 21 41  1  0  0  0
 21 42  1  0  0  0
 22 43  1  0  0  0
 23 24  1  0  0  0
 24 25  1  0  0  0
 25 26  2  0  0  0
 25 27  1  0  0  0
 44 45  1  0  0  0
 44 47  1  0  0  0
 44 48  1  0  0  0
 44 49  1  0  0  0
 45 46  2  0  0  0
M  CHG  2   3  -1  27  -1
M  END
> <s_m_entry_id>
524

> <s_m_Source_Path>
/projects/mai/users/kmzp800_harry/pmx_colab/docking_jobs/ptp1b/glide-dock_SP_ptp1b_mcs_2

> <s_m_Source_File>
glide-dock_SP_ptp1b_mcs_2_pv.maegz

> <i_m_Source_File_Index>
9

> <r_i_docking_score>
-6.76393902386105

> <r_i_glide_gscore>
-6.76393902386105

> <r_i_glide_emodel>
-87.5571992865605

$$$$
lig_20670_2qbs
                    3D
 Schrodinger Suite 2021-4.
 45 47  0  0  1  0            999 V2000
   39.2008   17.5437   12.6848 O   0  0  0  0  0  0
   40.3597   17.0696   12.6845 C   0  0  0  0  0  0
   41.2273   17.3069   11.8138 O   0  5  0  0  0  0
   40.7577   16.1458   13.8347 C   0  0  0  0  0  0
   42.1243   15.7545   13.7456 O   0  0  0  0  0  0
   42.5153   14.9367   14.7489 C   0  0  0  0  0  0
   42.1431   13.5756   14.8842 C   0  0  0  0  0  0
   41.1712   12.6872   13.5366 Br  0  0  0  0  0  0
   42.5854   12.9463   16.0129 C   0  0  0  0  0  0
   42.3237   11.5973   16.4906 C   0  0  0  0  0  0
   43.3712   10.7905   16.9766 C   0  0  0  0  0  0
   43.1150    9.4777   17.4081 C   0  0  0  0  0  0
   41.8073    8.9658   17.3517 C   0  0  0  0  0  0
   40.7470    9.7561   16.8705 C   0  0  0  0  0  0
   39.4389    9.2598   16.7820 N   0  0  0  0  0  0
   39.2108    7.8491   16.4481 C   0  0  0  0  0  0
   37.7045    7.5142   16.5070 C   0  0  0  0  0  0
   36.9154    8.1706   15.3572 C   0  0  0  0  0  0
   37.4947    7.7704   13.9893 C   0  0  0  0  0  0
   38.9928    8.1071   13.9017 C   0  0  0  0  0  0
   39.7792    7.4624   15.0570 C   0  0  0  0  0  0
   41.0107   11.0764   16.4569 C   0  0  0  0  0  0
   43.6100   14.0170   16.9164 S   0  0  0  0  0  0
   43.3450   15.3179   15.7685 C   0  0  0  0  0  0
   44.0108   16.5871   16.0415 C   0  0  0  0  0  0
   43.8533   17.5420   15.2549 O   0  0  0  0  0  0
   44.7441   16.6863   17.0468 O   0  5  0  0  0  0
   40.5513   16.6398   14.7848 H   0  0  0  0  0  0
   40.1309   15.2688   13.7653 H   0  0  0  0  0  0
   44.3794   11.1735   17.0088 H   0  0  0  0  0  0
   43.9238    8.8652   17.7775 H   0  0  0  0  0  0
   41.6280    7.9464   17.6578 H   0  0  0  0  0  0
   38.7215    9.9028   16.5083 H   0  0  0  0  0  0
   39.7004    7.2469   17.2145 H   0  0  0  0  0  0
   37.5795    6.4287   16.4483 H   0  0  0  0  0  0
   37.2930    7.8164   17.4746 H   0  0  0  0  0  0
   35.8661    7.8825   15.4183 H   0  0  0  0  0  0
   36.9462    9.2582   15.4496 H   0  0  0  0  0  0
   39.3977    7.7721   12.9434 H   0  0  0  0  0  0
   39.1195    9.1912   13.9273 H   0  0  0  0  0  0
   40.8374    7.7211   14.9717 H   0  0  0  0  0  0
   39.7392    6.3770   14.9507 H   0  0  0  0  0  0
   40.2033   11.6908   16.0869 H   0  0  0  0  0  0
   37.3456    6.7003   13.8324 H   0  0  0  0  0  0
   36.9542    8.2841   13.1921 H   0  0  0  0  0  0
  1  2  2  0  0  0
  2  3  1  0  0  0
  2  4  1  0  0  0
  4  5  1  0  0  0
  4 28  1  0  0  0
  4 29  1  0  0  0
  5  6  1  0  0  0
  6  7  1  0  0  0
  6 24  2  0  0  0
  7  8  1  0  0  0
  7  9  2  0  0  0
  9 10  1  0  0  0
  9 23  1  0  0  0
 10 11  2  0  0  0
 10 22  1  0  0  0
 11 12  1  0  0  0
 11 30  1  0  0  0
 12 13  2  0  0  0
 12 31  1  0  0  0
 13 14  1  0  0  0
 13 32  1  0  0  0
 14 15  1  0  0  0
 14 22  2  0  0  0
 15 16  1  0  0  0
 15 33  1  0  0  0
 16 17  1  0  0  0
 16 21  1  0  0  0
 16 34  1  0  0  0
 17 18  1  0  0  0
 17 35  1  0  0  0
 17 36  1  0  0  0
 18 19  1  0  0  0
 18 37  1  0  0  0
 18 38  1  0  0  0
 19 20  1  0  0  0
 19 44  1  0  0  0
 19 45  1  0  0  0
 20 21  1  0  0  0
 20 39  1  0  0  0
 20 40  1  0  0  0
 21 41  1  0  0  0
 21 42  1  0  0  0
 22 43  1  0  0  0
 23 24  1  0  0  0
 24 25  1  0  0  0
 25 26  2  0  0  0
 25 27  1  0  0  0
M  CHG  2   3  -1  27  -1
M  END
> <s_m_entry_id>
525

> <s_m_Source_Path>
/projects/mai/users/kmzp800_harry/pmx_colab/docking_jobs/ptp1b/glide-dock_SP_ptp1b_mcs_2

> <s_m_Source_File>
glide-dock_SP_ptp1b_mcs_2_pv.maegz

> <i_m_Source_File_Index>
10

> <r_i_docking_score>
-6.75401094997784

> <r_i_glide_gscore>
-6.75401094997784

> <r_i_glide_emodel>
-82.2331530182704

$$$$
lig_23473
                    3D
 Schrodinger Suite 2021-4.
 41 43  0  0  1  0            999 V2000
   39.1960   17.5317   12.6842 O   0  0  0  0  0  0
   40.3624   17.0676   12.6900 C   0  0  0  0  0  0
   41.2287   17.3094   11.8192 O   0  5  0  0  0  0
   40.7482   16.1413   13.8475 C   0  0  0  0  0  0
   42.1058   15.7265   13.7346 O   0  0  0  0  0  0
   42.5197   14.9299   14.7452 C   0  0  0  0  0  0
   42.1710   13.5636   14.8773 C   0  0  0  0  0  0
   41.1739   12.6863   13.5422 Br  0  0  0  0  0  0
   42.6147   12.9387   16.0073 C   0  0  0  0  0  0
   42.3402   11.5919   16.4761 C   0  0  0  0  0  0
   43.3746   10.7581   16.9410 C   0  0  0  0  0  0
   43.0924    9.4487   17.3601 C   0  0  0  0  0  0
   41.7788    8.9550   17.3053 C   0  0  0  0  0  0
   40.7293    9.7809   16.8505 C   0  0  0  0  0  0
   39.4060    9.4073   16.7953 O   0  0  0  0  0  0
   39.0244    8.0647   17.0699 C   0  0  0  0  0  0
   39.2096    7.1395   15.8836 C   0  0  0  0  0  0
   39.2317    5.7434   16.0812 C   0  0  0  0  0  0
   39.3839    4.8753   14.9822 C   0  0  0  0  0  0
   39.5094    5.4002   13.6817 C   0  0  0  0  0  0
   39.4818    6.7933   13.4795 C   0  0  0  0  0  0
   39.3260    7.6609   14.5771 C   0  0  0  0  0  0
   41.0223   11.0937   16.4509 C   0  0  0  0  0  0
   43.6301   14.0193   16.9158 S   0  0  0  0  0  0
   43.3585   15.3184   15.7620 C   0  0  0  0  0  0
   44.0246   16.5935   16.0400 C   0  0  0  0  0  0
   43.8623   17.5528   15.2554 O   0  0  0  0  0  0
   44.7517   16.6791   17.0517 O   0  5  0  0  0  0
   40.6136   16.6795   14.7848 H   0  0  0  0  0  0
   40.0769   15.2864   13.8752 H   0  0  0  0  0  0
   44.3859   11.1250   16.9733 H   0  0  0  0  0  0
   43.8905    8.8206   17.7228 H   0  0  0  0  0  0
   41.6031    7.9442   17.6277 H   0  0  0  0  0  0
   39.5618    7.6747   17.9318 H   0  0  0  0  0  0
   37.9633    8.0594   17.3355 H   0  0  0  0  0  0
   39.1311    5.3336   17.0770 H   0  0  0  0  0  0
   39.4067    3.8070   15.1384 H   0  0  0  0  0  0
   39.6324    4.7344   12.8403 H   0  0  0  0  0  0
   39.5802    7.1983   12.4843 H   0  0  0  0  0  0
   39.2994    8.7291   14.4121 H   0  0  0  0  0  0
   40.2150   11.7276   16.1161 H   0  0  0  0  0  0
  1  2  2  0  0  0
  2  3  1  0  0  0
  2  4  1  0  0  0
  4  5  1  0  0  0
  4 29  1  0  0  0
  4 30  1  0  0  0
  5  6  1  0  0  0
  6  7  1  0  0  0
  6 25  2  0  0  0
  7  8  1  0  0  0
  7  9  2  0  0  0
  9 10  1  0  0  0
  9 24  1  0  0  0
 10 11  2  0  0  0
 10 23  1  0  0  0
 11 12  1  0  0  0
 11 31  1  0  0  0
 12 13  2  0  0  0
 12 32  1  0  0  0
 13 14  1  0  0  0
 13 33  1  0  0  0
 14 15  1  0  0  0
 14 23  2  0  0  0
 15 16  1  0  0  0
 16 17  1  0  0  0
 16 34  1  0  0  0
 16 35  1  0  0  0
 17 18  2  0  0  0
 17 22  1  0  0  0
 18 19  1  0  0  0
 18 36  1  0  0  0
 19 20  2  0  0  0
 19 37  1  0  0  0
 20 21  1  0  0  0
 20 38  1  0  0  0
 21 22  2  0  0  0
 21 39  1  0  0  0
 22 40  1  0  0  0
 23 41  1  0  0  0
 24 25  1  0  0  0
 25 26  1  0  0  0
 26 27  2  0  0  0
 26 28  1  0  0  0
M  CHG  2   3  -1  28  -1
M  END
> <s_m_entry_id>
526

> <s_m_Source_Path>
/projects/mai/users/kmzp800_harry/pmx_colab/docking_jobs/ptp1b/glide-dock_SP_ptp1b_mcs_2

> <s_m_Source_File>
glide-dock_SP_ptp1b_mcs_2_pv.maegz

> <i_m_Source_File_Index>
11

> <r_i_docking_score>
-6.73771607282999

> <r_i_glide_gscore>
-6.73771607282999

> <r_i_glide_emodel>
-85.945560602044

$$$$
lig_23476
                    3D
 Schrodinger Suite 2021-4.
 48 50  0  0  1  0            999 V2000
   39.1891   17.5187   12.6742 O   0  0  0  0  0  0
   40.3574   17.0717   12.6867 C   0  0  0  0  0  0
   41.2197   17.3103   11.8087 O   0  5  0  0  0  0
   40.7459   16.1387   13.8376 C   0  0  0  0  0  0
   42.1101   15.7428   13.7399 O   0  0  0  0  0  0
   42.5184   14.9344   14.7438 C   0  0  0  0  0  0
   42.1670   13.5682   14.8750 C   0  0  0  0  0  0
   41.1727   12.6865   13.5406 Br  0  0  0  0  0  0
   42.6163   12.9424   15.9987 C   0  0  0  0  0  0
   42.3466   11.5957   16.4701 C   0  0  0  0  0  0
   43.3843   10.7708   16.9425 C   0  0  0  0  0  0
   43.1083    9.4673   17.3833 C   0  0  0  0  0  0
   41.7946    8.9897   17.3514 C   0  0  0  0  0  0
   40.7419    9.7900   16.8646 C   0  0  0  0  0  0
   39.4115    9.3687   16.7952 N   0  0  0  0  0  0
   41.0294   11.0948   16.4386 C   0  0  0  0  0  0
   43.6301   14.0195   16.9098 S   0  0  0  0  0  0
   43.3527   15.3199   15.7603 C   0  0  0  0  0  0
   44.0103   16.5919   16.0418 C   0  0  0  0  0  0
   43.8364   17.5590   15.2644 O   0  0  0  0  0  0
   44.7445   16.6850   17.0480 O   0  5  0  0  0  0
   40.5413   16.6340   14.7881 H   0  0  0  0  0  0
   40.1235   15.2525   13.7979 H   0  0  0  0  0  0
   44.3972   11.1368   16.9724 H   0  0  0  0  0  0
   43.8994    8.8381   17.7574 H   0  0  0  0  0  0
   41.6414    8.0100   17.7413 H   0  0  0  0  0  0
   38.7316    9.9660   16.3483 H   0  0  0  0  0  0
   39.2556    7.9282   18.2251 H   0  0  0  0  0  0
   40.2240   11.7240   16.0900 H   0  0  0  0  0  0
   38.9898    8.0285   17.1728 C   0  0  0  0  0  0
   37.4570    7.8901   17.0874 C   0  0  0  0  0  0
   36.8470    8.2463   15.7202 C   0  0  0  0  0  0
   37.4003    7.4486   14.5271 C   0  0  0  0  0  0
   38.8202    7.8807   14.1268 C   0  0  0  0  0  0
   39.9568    7.1815   14.8932 C   0  0  0  0  0  0
   39.7025    6.9066   16.3849 C   0  0  0  0  0  0
   37.1659    6.8746   17.3614 H   0  0  0  0  0  0
   37.0036    8.5327   17.8424 H   0  0  0  0  0  0
   35.7775    8.0711   15.7782 H   0  0  0  0  0  0
   36.9586    9.3142   15.5316 H   0  0  0  0  0  0
   37.3543    6.3753   14.7158 H   0  0  0  0  0  0
   36.7444    7.6316   13.6772 H   0  0  0  0  0  0
   38.9692    7.6891   13.0665 H   0  0  0  0  0  0
   38.9138    8.9624   14.2336 H   0  0  0  0  0  0
   40.1833    6.2341   14.4072 H   0  0  0  0  0  0
   40.8647    7.7804   14.7966 H   0  0  0  0  0  0
   40.6566    6.6726   16.8255 H   0  0  0  0  0  0
   39.1682    5.9717   16.5156 H   0  0  0  0  0  0
  1  2  2  0  0  0
  2  3  1  0  0  0
  2  4  1  0  0  0
  4  5  1  0  0  0
  4 22  1  0  0  0
  4 23  1  0  0  0
  5  6  1  0  0  0
  6  7  1  0  0  0
  6 18  2  0  0  0
  7  8  1  0  0  0
  7  9  2  0  0  0
  9 10  1  0  0  0
  9 17  1  0  0  0
 10 11  2  0  0  0
 10 16  1  0  0  0
 11 12  1  0  0  0
 11 24  1  0  0  0
 12 13  2  0  0  0
 12 25  1  0  0  0
 13 14  1  0  0  0
 13 26  1  0  0  0
 14 15  1  0  0  0
 14 16  2  0  0  0
 15 27  1  0  0  0
 15 30  1  0  0  0
 16 29  1  0  0  0
 17 18  1  0  0  0
 18 19  1  0  0  0
 19 20  2  0  0  0
 19 21  1  0  0  0
 28 30  1  0  0  0
 30 31  1  0  0  0
 30 36  1  0  0  0
 31 32  1  0  0  0
 31 37  1  0  0  0
 31 38  1  0  0  0
 32 33  1  0  0  0
 32 39  1  0  0  0
 32 40  1  0  0  0
 33 34  1  0  0  0
 33 41  1  0  0  0
 33 42  1  0  0  0
 34 35  1  0  0  0
 34 43  1  0  0  0
 34 44  1  0  0  0
 35 36  1  0  0  0
 35 45  1  0  0  0
 35 46  1  0  0  0
 36 47  1  0  0  0
 36 48  1  0  0  0
M  CHG  2   3  -1  21  -1
M  END
> <s_m_entry_id>
527

> <s_m_Source_Path>
/projects/mai/users/kmzp800_harry/pmx_colab/docking_jobs/ptp1b/glide-dock_SP_ptp1b_mcs_2

> <s_m_Source_File>
glide-dock_SP_ptp1b_mcs_2_pv.maegz

> <i_m_Source_File_Index>
12

> <r_i_docking_score>
-6.73260337019948

> <r_i_glide_gscore>
-6.73260337019948

> <r_i_glide_emodel>
-84.0685420071205

$$$$
lig_23482
                    3D
 Schrodinger Suite 2021-4.
 50 52  0  0  1  0            999 V2000
   39.1952   17.5362   12.6837 O   0  0  0  0  0  0
   40.3587   17.0709   12.6888 C   0  0  0  0  0  0
   41.2223   17.3104   11.8136 O   0  5  0  0  0  0
   40.7508   16.1460   13.8463 C   0  0  0  0  0  0
   42.1070   15.7298   13.7386 O   0  0  0  0  0  0
   42.5193   14.9287   14.7459 C   0  0  0  0  0  0
   42.1638   13.5636   14.8772 C   0  0  0  0  0  0
   41.1783   12.6915   13.5375 Br  0  0  0  0  0  0
   42.6091   12.9398   16.0067 C   0  0  0  0  0  0
   42.3411   11.5905   16.4778 C   0  0  0  0  0  0
   43.3810   10.7596   16.9429 C   0  0  0  0  0  0
   43.1037    9.4533   17.3730 C   0  0  0  0  0  0
   41.7889    8.9605   17.3342 C   0  0  0  0  0  0
   40.7425    9.7775   16.8600 C   0  0  0  0  0  0
   39.4194    9.3428   16.7836 N   0  0  0  0  0  0
   39.0477    7.9494   16.9367 C   0  0  0  0  0  0
   37.5171    7.8041   16.9546 C   0  0  0  0  0  0
   36.8805    8.1494   15.5872 C   0  0  0  0  0  0
   37.5237    7.4217   14.4733 N   0  0  3  0  0  0
   36.6057    6.3118   13.4943 S   0  0  0  0  0  0
   35.2994    6.9277   13.2093 O   0  0  0  0  0  0
   37.4575    5.8699   12.3804 O   0  0  0  0  0  0
   36.3245    4.8888   14.6129 C   0  0  0  0  0  0
   39.0043    7.4379   14.4340 C   0  0  0  0  0  0
   39.6219    7.0868   15.7968 C   0  0  0  0  0  0
   41.0234   11.0913   16.4562 C   0  0  0  0  0  0
   43.6333   14.0163   16.9098 S   0  0  0  0  0  0
   43.3553   15.3164   15.7622 C   0  0  0  0  0  0
   44.0152   16.5938   16.0425 C   0  0  0  0  0  0
   43.8347   17.5550   15.2606 O   0  0  0  0  0  0
   44.7441   16.6863   17.0529 O   0  5  0  0  0  0
   40.6110   16.6852   14.7807 H   0  0  0  0  0  0
   40.0835   15.2908   13.8633 H   0  0  0  0  0  0
   44.3922   11.1296   16.9647 H   0  0  0  0  0  0
   43.9009    8.8292   17.7372 H   0  0  0  0  0  0
   41.6103    7.9511   17.6658 H   0  0  0  0  0  0
   38.6805   10.0323   16.6903 H   0  0  0  0  0  0
   39.4511    7.6216   17.8971 H   0  0  0  0  0  0
   37.2532    6.7798   17.2257 H   0  0  0  0  0  0
   37.0915    8.4393   17.7376 H   0  0  0  0  0  0
   35.8131    7.9307   15.6121 H   0  0  0  0  0  0
   36.9668    9.2203   15.3911 H   0  0  0  0  0  0
   35.6928    4.1546   14.1093 H   0  0  0  0  0  0
   37.2737    4.4313   14.8724 H   0  0  0  0  0  0
   39.3647    6.7465   13.6805 H   0  0  0  0  0  0
   39.3208    8.4292   14.1106 H   0  0  0  0  0  0
   40.7063    7.2070   15.7479 H   0  0  0  0  0  0
   39.4552    6.0396   16.0209 H   0  0  0  0  0  0
   40.2174   11.7200   16.1183 H   0  0  0  0  0  0
   35.8223    5.2338   15.5147 H   0  0  0  0  0  0
  1  2  2  0  0  0
  2  3  1  0  0  0
  2  4  1  0  0  0
  4  5  1  0  0  0
  4 32  1  0  0  0
  4 33  1  0  0  0
  5  6  1  0  0  0
  6  7  1  0  0  0
  6 28  2  0  0  0
  7  8  1  0  0  0
  7  9  2  0  0  0
  9 10  1  0  0  0
  9 27  1  0  0  0
 10 11  2  0  0  0
 10 26  1  0  0  0
 11 12  1  0  0  0
 11 34  1  0  0  0
 12 13  2  0  0  0
 12 35  1  0  0  0
 13 14  1  0  0  0
 13 36  1  0  0  0
 14 15  1  0  0  0
 14 26  2  0  0  0
 15 16  1  0  0  0
 15 37  1  0  0  0
 16 17  1  0  0  0
 16 25  1  0  0  0
 16 38  1  0  0  0
 17 18  1  0  0  0
 17 39  1  0  0  0
 17 40  1  0  0  0
 18 19  1  0  0  0
 18 41  1  0  0  0
 18 42  1  0  0  0
 19 20  1  0  0  0
 19 24  1  0  0  0
 20 21  2  0  0  0
 20 22  2  0  0  0
 20 23  1  0  0  0
 23 43  1  0  0  0
 23 44  1  0  0  0
 23 50  1  0  0  0
 24 25  1  0  0  0
 24 45  1  0  0  0
 24 46  1  0  0  0
 25 47  1  0  0  0
 25 48  1  0  0  0
 26 49  1  0  0  0
 27 28  1  0  0  0
 28 29  1  0  0  0
 29 30  2  0  0  0
 29 31  1  0  0  0
M  CHG  2   3  -1  31  -1
M  END
> <s_m_entry_id>
528

> <s_m_Source_Path>
/projects/mai/users/kmzp800_harry/pmx_colab/docking_jobs/ptp1b/glide-dock_SP_ptp1b_mcs_2

> <s_m_Source_File>
glide-dock_SP_ptp1b_mcs_2_pv.maegz

> <i_m_Source_File_Index>
13

> <r_i_docking_score>
-6.70929644471377

> <r_i_glide_gscore>
-6.70929644471377

> <r_i_glide_emodel>
-88.1263464896185

$$$$
lig_23484
                    3D
 Schrodinger Suite 2021-4.
 60 63  0  0  1  0            999 V2000
   39.1937   17.5334   12.6836 O   0  0  0  0  0  0
   40.3575   17.0678   12.6799 C   0  0  0  0  0  0
   41.2104   17.3019   11.7979 O   0  5  0  0  0  0
   40.7493   16.1321   13.8285 C   0  0  0  0  0  0
   42.1110   15.7243   13.7307 O   0  0  0  0  0  0
   42.5181   14.9111   14.7313 C   0  0  0  0  0  0
   42.1575   13.5393   14.8484 C   0  0  0  0  0  0
   42.6201   12.9385   15.9864 C   0  0  0  0  0  0
   42.3497   11.5906   16.4663 C   0  0  0  0  0  0
   43.3796   10.7596   16.9543 C   0  0  0  0  0  0
   43.1055    9.4639   17.3932 C   0  0  0  0  0  0
   41.7884    8.9665   17.3592 C   0  0  0  0  0  0
   40.7490    9.7654   16.8266 C   0  0  0  0  0  0
   39.4211    9.3226   16.7163 N   0  0  0  0  0  0
   39.0458    7.9556   17.0331 C   0  0  0  0  0  0
   37.6055    7.6796   16.5815 C   0  0  0  0  0  0
   37.1706    6.2296   16.8787 C   0  0  0  0  0  0
   38.1488    5.2252   16.4155 N   0  0  3  0  0  0
   37.7610    4.0385   15.2070 S   0  0  0  0  0  0
   38.5482    2.8324   15.5053 O   0  0  0  0  0  0
   36.2964    3.9577   15.1247 O   0  0  0  0  0  0
   38.4032    4.7531   13.6301 C   0  0  0  0  0  0
   37.7667    4.0398   12.4469 C   0  0  0  0  0  0
   38.1640    2.7258   12.1091 C   0  0  0  0  0  0
   37.5705    2.0652   11.0148 C   0  0  0  0  0  0
   36.5809    2.7152   10.2506 C   0  0  0  0  0  0
   36.1841    4.0233   10.5857 C   0  0  0  0  0  0
   36.7733    4.6838   11.6808 C   0  0  0  0  0  0
   39.5441    5.4895   16.7394 C   0  0  0  0  0  0
   39.9225    6.8987   16.3180 C   0  0  0  0  0  0
   41.0361   11.0771   16.4183 C   0  0  0  0  0  0
   43.6327   14.0178   16.8939 S   0  0  0  0  0  0
   43.3471   15.3091   15.7480 C   0  0  0  0  0  0
   44.0084   16.5902   16.0345 C   0  0  0  0  0  0
   43.8372   17.5529   15.2583 O   0  0  0  0  0  0
   44.7445   16.6865   17.0396 O   0  5  0  0  0  0
   40.5563   16.6312   14.7799 H   0  0  0  0  0  0
   40.1089   15.2515   13.7746 H   0  0  0  0  0  0
   44.3945   11.1332   17.0015 H   0  0  0  0  0  0
   43.8869    8.8463   17.8053 H   0  0  0  0  0  0
   41.6495    8.0262   17.8808 H   0  0  0  0  0  0
   38.6973   10.0211   16.6256 H   0  0  0  0  0  0
   39.1075    7.8737   18.1217 H   0  0  0  0  0  0
   36.9098    8.3740   17.0588 H   0  0  0  0  0  0
   37.5208    7.8636   15.5061 H   0  0  0  0  0  0
   37.0441    6.0943   17.9536 H   0  0  0  0  0  0
   36.2031    6.0345   16.4271 H   0  0  0  0  0  0
   38.1687    5.8149   13.6089 H   0  0  0  0  0  0
   39.4882    4.6400   13.6058 H   0  0  0  0  0  0
   38.9218    2.2204   12.6886 H   0  0  0  0  0  0
   37.8733    1.0599   10.7610 H   0  0  0  0  0  0
   36.1250    2.2043    9.4150 H   0  0  0  0  0  0
   35.4210    4.5170   10.0036 H   0  0  0  0  0  0
   36.4625    5.6878   11.9301 H   0  0  0  0  0  0
   39.7284    5.3388   17.8091 H   0  0  0  0  0  0
   40.1725    4.7840   16.2069 H   0  0  0  0  0  0
   39.8899    7.0559   15.2430 H   0  0  0  0  0  0
   40.9800    6.9149   16.5004 H   0  0  0  0  0  0
   40.2370   11.7184   16.0668 H   0  0  0  0  0  0
   41.5633   13.0376   14.0985 H   0  0  0  0  0  0
  1  2  2  0  0  0
  2  3  1  0  0  0
  2  4  1  0  0  0
  4  5  1  0  0  0
  4 37  1  0  0  0
  4 38  1  0  0  0
  5  6  1  0  0  0
  6  7  1  0  0  0
  6 33  2  0  0  0
  7  8  2  0  0  0
  7 60  1  0  0  0
  8  9  1  0  0  0
  8 32  1  0  0  0
  9 10  2  0  0  0
  9 31  1  0  0  0
 10 11  1  0  0  0
 10 39  1  0  0  0
 11 12  2  0  0  0
 11 40  1  0  0  0
 12 13  1  0  0  0
 12 41  1  0  0  0
 13 14  1  0  0  0
 13 31  2  0  0  0
 14 15  1  0  0  0
 14 42  1  0  0  0
 15 16  1  0  0  0
 15 30  1  0  0  0
 15 43  1  0  0  0
 16 17  1  0  0  0
 16 44  1  0  0  0
 16 45  1  0  0  0
 17 18  1  0  0  0
 17 46  1  0  0  0
 17 47  1  0  0  0
 18 19  1  0  0  0
 18 29  1  0  0  0
 19 20  2  0  0  0
 19 21  2  0  0  0
 19 22  1  0  0  0
 22 23  1  0  0  0
 22 48  1  0  0  0
 22 49  1  0  0  0
 23 24  2  0  0  0
 23 28  1  0  0  0
 24 25  1  0  0  0
 24 50  1  0  0  0
 25 26  2  0  0  0
 25 51  1  0  0  0
 26 27  1  0  0  0
 26 52  1  0  0  0
 27 28  2  0  0  0
 27 53  1  0  0  0
 28 54  1  0  0  0
 29 30  1  0  0  0
 29 55  1  0  0  0
 29 56  1  0  0  0
 30 57  1  0  0  0
 30 58  1  0  0  0
 31 59  1  0  0  0
 32 33  1  0  0  0
 33 34  1  0  0  0
 34 35  2  0  0  0
 34 36  1  0  0  0
M  CHG  2   3  -1  36  -1
M  END
> <s_m_entry_id>
529

> <s_m_Source_Path>
/projects/mai/users/kmzp800_harry/pmx_colab/docking_jobs/ptp1b/glide-dock_SP_ptp1b_mcs_2

> <s_m_Source_File>
glide-dock_SP_ptp1b_mcs_2_pv.maegz

> <i_m_Source_File_Index>
14

> <r_i_docking_score>
-6.70652859684747

> <r_i_glide_gscore>
-6.70652859684747

> <r_i_glide_emodel>
-96.2676689207725

$$$$
lig_23467
                    3D
 Schrodinger Suite 2021-4.
 31 32  0  0  1  0            999 V2000
   39.1970   17.5160   12.6748 O   0  0  0  0  0  0
   40.3645   17.0658   12.6849 C   0  0  0  0  0  0
   41.2248   17.2997   11.8067 O   0  5  0  0  0  0
   40.7586   16.1481   13.8463 C   0  0  0  0  0  0
   42.1160   15.7297   13.7360 O   0  0  0  0  0  0
   42.5225   14.9278   14.7460 C   0  0  0  0  0  0
   42.1694   13.5625   14.8796 C   0  0  0  0  0  0
   41.1759   12.6870   13.5419 Br  0  0  0  0  0  0
   42.6142   12.9363   16.0081 C   0  0  0  0  0  0
   42.3410   11.5888   16.4790 C   0  0  0  0  0  0
   43.3726   10.7562   16.9496 C   0  0  0  0  0  0
   43.0884    9.4463   17.3712 C   0  0  0  0  0  0
   41.7707    8.9535   17.3144 C   0  0  0  0  0  0
   40.7238    9.7798   16.8507 C   0  0  0  0  0  0
   39.4039    9.4000   16.7735 O   0  0  0  0  0  0
   39.0317    8.0635   17.0756 C   0  0  0  0  0  0
   41.0234   11.0929   16.4492 C   0  0  0  0  0  0
   43.6328   14.0149   16.9156 S   0  0  0  0  0  0
   43.3585   15.3145   15.7636 C   0  0  0  0  0  0
   44.0183   16.5908   16.0432 C   0  0  0  0  0  0
   43.8534   17.5497   15.2572 O   0  0  0  0  0  0
   44.7420   16.6879   17.0551 O   0  5  0  0  0  0
   40.6157   16.6825   14.7844 H   0  0  0  0  0  0
   40.0954   15.2870   13.8673 H   0  0  0  0  0  0
   44.3850   11.1231   16.9850 H   0  0  0  0  0  0
   43.8845    8.8187   17.7389 H   0  0  0  0  0  0
   41.5743    7.9448   17.6363 H   0  0  0  0  0  0
   40.2293   11.7367   16.1056 H   0  0  0  0  0  0
   37.9537    7.9707   16.9295 H   0  0  0  0  0  0
   39.5156    7.3467   16.4122 H   0  0  0  0  0  0
   39.2451    7.8049   18.1126 H   0  0  0  0  0  0
  1  2  2  0  0  0
  2  3  1  0  0  0
  2  4  1  0  0  0
  4  5  1  0  0  0
  4 23  1  0  0  0
  4 24  1  0  0  0
  5  6  1  0  0  0
  6  7  1  0  0  0
  6 19  2  0  0  0
  7  8  1  0  0  0
  7  9  2  0  0  0
  9 10  1  0  0  0
  9 18  1  0  0  0
 10 11  2  0  0  0
 10 17  1  0  0  0
 11 12  1  0  0  0
 11 25  1  0  0  0
 12 13  2  0  0  0
 12 26  1  0  0  0
 13 14  1  0  0  0
 13 27  1  0  0  0
 14 15  1  0  0  0
 14 17  2  0  0  0
 15 16  1  0  0  0
 16 29  1  0  0  0
 16 30  1  0  0  0
 16 31  1  0  0  0
 17 28  1  0  0  0
 18 19  1  0  0  0
 19 20  1  0  0  0
 20 21  2  0  0  0
 20 22  1  0  0  0
M  CHG  2   3  -1  22  -1
M  END
> <s_m_entry_id>
530

> <s_m_Source_Path>
/projects/mai/users/kmzp800_harry/pmx_colab/docking_jobs/ptp1b/glide-dock_SP_ptp1b_mcs_2

> <s_m_Source_File>
glide-dock_SP_ptp1b_mcs_2_pv.maegz

> <i_m_Source_File_Index>
15

> <r_i_docking_score>
-6.7057832493132

> <r_i_glide_gscore>
-6.7057832493132

> <r_i_glide_emodel>
-80.7100366351684

$$$$
lig_23483
                    3D
 Schrodinger Suite 2021-4.
 57 60  0  0  1  0            999 V2000
   39.1980   17.5242   12.6922 O   0  0  0  0  0  0
   40.3628   17.0672   12.6918 C   0  0  0  0  0  0
   41.2218   17.3120   11.8141 O   0  5  0  0  0  0
   40.7608   16.1493   13.8514 C   0  0  0  0  0  0
   42.1186   15.7287   13.7372 O   0  0  0  0  0  0
   42.5184   14.9223   14.7469 C   0  0  0  0  0  0
   42.1642   13.5596   14.8806 C   0  0  0  0  0  0
   41.1725   12.6874   13.5383 Br  0  0  0  0  0  0
   42.6107   12.9284   16.0076 C   0  0  0  0  0  0
   42.3480   11.5802   16.4772 C   0  0  0  0  0  0
   43.3839   10.7661   16.9770 C   0  0  0  0  0  0
   43.1158    9.4589   17.4128 C   0  0  0  0  0  0
   41.8065    8.9477   17.3380 C   0  0  0  0  0  0
   40.7609    9.7460   16.8320 C   0  0  0  0  0  0
   39.4493    9.2766   16.7082 N   0  0  0  0  0  0
   38.8178    8.5238   17.7815 C   0  0  0  0  0  0
   38.7303    9.3442   19.0816 C   0  0  0  0  0  0
   37.7728   10.5479   18.9477 C   0  0  0  0  0  0
   36.4486   10.1355   18.4381 N   0  0  3  0  0  0
   34.9903   10.4236   19.3624 S   0  0  0  0  0  0
   33.9581    9.4864   18.8940 O   0  0  0  0  0  0
   35.3566   10.4707   20.7878 O   0  0  0  0  0  0
   36.4461    9.2887   17.2251 C   0  0  0  0  0  0
   37.4031    8.0886   17.3633 C   0  0  0  0  0  0
   41.0388   11.0567   16.4220 C   0  0  0  0  0  0
   43.6257   14.0072   16.9154 S   0  0  0  0  0  0
   43.3542   15.3099   15.7678 C   0  0  0  0  0  0
   44.0110   16.5859   16.0476 C   0  0  0  0  0  0
   43.8370   17.5473   15.2618 O   0  0  0  0  0  0
   44.7433   16.6863   17.0542 O   0  5  0  0  0  0
   40.6313   16.6927   14.7875 H   0  0  0  0  0  0
   40.1017   15.2909   13.8783 H   0  0  0  0  0  0
   44.3914   11.1457   17.0204 H   0  0  0  0  0  0
   43.9136    8.8450   17.7940 H   0  0  0  0  0  0
   41.6245    7.9366   17.6623 H   0  0  0  0  0  0
   38.8481    9.7270   16.0358 H   0  0  0  0  0  0
   39.4285    7.6374   17.9510 H   0  0  0  0  0  0
   38.3853    8.7030   19.8919 H   0  0  0  0  0  0
   39.7240    9.6885   19.3800 H   0  0  0  0  0  0
   37.6648   11.0443   19.9111 H   0  0  0  0  0  0
   38.1938   11.2924   18.2727 H   0  0  0  0  0  0
   35.4438    8.9259   17.0279 H   0  0  0  0  0  0
   36.7285    9.8861   16.3608 H   0  0  0  0  0  0
   37.4470    7.5353   16.4204 H   0  0  0  0  0  0
   37.0013    7.3938   18.1027 H   0  0  0  0  0  0
   40.2361   11.6770   16.0571 H   0  0  0  0  0  0
   33.7661   14.6781   18.0949 C   0  0  0  0  0  0
   33.0131   13.5719   17.6569 C   0  0  0  0  0  0
   33.3852   12.2690   18.0408 C   0  0  0  0  0  0
   34.5158   12.0784   18.8599 C   0  0  0  0  0  0
   35.2800   13.1829   19.2903 C   0  0  0  0  0  0
   34.9053   14.4866   18.9041 C   0  0  0  0  0  0
   33.4757   15.6777   17.8028 H   0  0  0  0  0  0
   32.1385   13.7224   17.0364 H   0  0  0  0  0  0
   32.8003   11.4234   17.7132 H   0  0  0  0  0  0
   36.1452   13.0369   19.9205 H   0  0  0  0  0  0
   35.4816   15.3389   19.2385 H   0  0  0  0  0  0
  1  2  2  0  0  0
  2  3  1  0  0  0
  2  4  1  0  0  0
  4  5  1  0  0  0
  4 31  1  0  0  0
  4 32  1  0  0  0
  5  6  1  0  0  0
  6  7  1  0  0  0
  6 27  2  0  0  0
  7  8  1  0  0  0
  7  9  2  0  0  0
  9 10  1  0  0  0
  9 26  1  0  0  0
 10 11  2  0  0  0
 10 25  1  0  0  0
 11 12  1  0  0  0
 11 33  1  0  0  0
 12 13  2  0  0  0
 12 34  1  0  0  0
 13 14  1  0  0  0
 13 35  1  0  0  0
 14 15  1  0  0  0
 14 25  2  0  0  0
 15 16  1  0  0  0
 15 36  1  0  0  0
 16 17  1  0  0  0
 16 24  1  0  0  0
 16 37  1  0  0  0
 17 18  1  0  0  0
 17 38  1  0  0  0
 17 39  1  0  0  0
 18 19  1  0  0  0
 18 40  1  0  0  0
 18 41  1  0  0  0
 19 20  1  0  0  0
 19 23  1  0  0  0
 20 21  2  0  0  0
 20 22  2  0  0  0
 20 50  1  0  0  0
 23 24  1  0  0  0
 23 42  1  0  0  0
 23 43  1  0  0  0
 24 44  1  0  0  0
 24 45  1  0  0  0
 25 46  1  0  0  0
 26 27  1  0  0  0
 27 28  1  0  0  0
 28 29  2  0  0  0
 28 30  1  0  0  0
 47 48  2  0  0  0
 47 52  1  0  0  0
 47 53  1  0  0  0
 48 49  1  0  0  0
 48 54  1  0  0  0
 49 50  2  0  0  0
 49 55  1  0  0  0
 50 51  1  0  0  0
 51 52  2  0  0  0
 51 56  1  0  0  0
 52 57  1  0  0  0
M  CHG  2   3  -1  30  -1
M  END
> <s_m_entry_id>
531

> <s_m_Source_Path>
/projects/mai/users/kmzp800_harry/pmx_colab/docking_jobs/ptp1b/glide-dock_SP_ptp1b_mcs_2

> <s_m_Source_File>
glide-dock_SP_ptp1b_mcs_2_pv.maegz

> <i_m_Source_File_Index>
16

> <r_i_docking_score>
-6.70319586701288

> <r_i_glide_gscore>
-6.70319586701288

> <r_i_glide_emodel>
-89.222037640041

$$$$
lig_20669_2qbr
                    3D
 Schrodinger Suite 2021-4.
 42 44  0  0  1  0            999 V2000
   39.1926   17.5344   12.6747 O   0  0  0  0  0  0
   40.3572   17.0712   12.6822 C   0  0  0  0  0  0
   41.2247   17.3055   11.8088 O   0  5  0  0  0  0
   40.7451   16.1481   13.8375 C   0  0  0  0  0  0
   42.0977   15.7364   13.7400 O   0  0  0  0  0  0
   42.4943   14.9350   14.7553 C   0  0  0  0  0  0
   42.1554   13.5711   14.8811 C   0  0  0  0  0  0
   41.1684   12.6865   13.5330 Br  0  0  0  0  0  0
   42.5930   12.9396   16.0100 C   0  0  0  0  0  0
   42.3297   11.5863   16.4697 C   0  0  0  0  0  0
   43.3726   10.7874   16.9710 C   0  0  0  0  0  0
   43.1120    9.4825   17.4082 C   0  0  0  0  0  0
   41.8089    8.9641   17.3496 C   0  0  0  0  0  0
   40.7527    9.7417   16.8375 C   0  0  0  0  0  0
   39.4584    9.2125   16.7681 N   0  0  0  0  0  0
   39.2300    7.7752   16.8449 C   0  0  0  0  0  0
   39.3860    7.0203   15.5381 C   0  0  0  0  0  0
   39.6573    7.6957   14.3261 C   0  0  0  0  0  0
   39.7889    6.9729   13.1257 C   0  0  0  0  0  0
   39.6389    5.5746   13.1274 C   0  0  0  0  0  0
   39.3823    4.8934   14.3318 C   0  0  0  0  0  0
   39.2552    5.6161   15.5365 C   0  0  0  0  0  0
   41.0223   11.0572   16.4160 C   0  0  0  0  0  0
   43.6055   14.0245   16.9251 S   0  0  0  0  0  0
   43.3277   15.3231   15.7799 C   0  0  0  0  0  0
   44.0044   16.5979   16.0537 C   0  0  0  0  0  0
   43.8386   17.5572   15.2680 O   0  0  0  0  0  0
   44.7482   16.6818   17.0560 O   0  5  0  0  0  0
   40.5982   16.6793   14.7823 H   0  0  0  0  0  0
   40.0757   15.2910   13.8372 H   0  0  0  0  0  0
   44.3749   11.1864   17.0162 H   0  0  0  0  0  0
   43.9122    8.8805   17.8000 H   0  0  0  0  0  0
   41.6306    7.9650   17.7116 H   0  0  0  0  0  0
   38.6775    9.8022   16.5071 H   0  0  0  0  0  0
   39.9091    7.3222   17.5623 H   0  0  0  0  0  0
   38.2283    7.6025   17.2330 H   0  0  0  0  0  0
   39.7478    8.7705   14.3111 H   0  0  0  0  0  0
   40.0014    7.4861   12.1960 H   0  0  0  0  0  0
   39.7448    5.0199   12.2055 H   0  0  0  0  0  0
   39.2846    3.8205   14.3264 H   0  0  0  0  0  0
   39.0545    5.0985   16.4594 H   0  0  0  0  0  0
   40.2164   11.6857   16.0622 H   0  0  0  0  0  0
  1  2  2  0  0  0
  2  3  1  0  0  0
  2  4  1  0  0  0
  4  5  1  0  0  0
  4 29  1  0  0  0
  4 30  1  0  0  0
  5  6  1  0  0  0
  6  7  1  0  0  0
  6 25  2  0  0  0
  7  8  1  0  0  0
  7  9  2  0  0  0
  9 10  1  0  0  0
  9 24  1  0  0  0
 10 11  2  0  0  0
 10 23  1  0  0  0
 11 12  1  0  0  0
 11 31  1  0  0  0
 12 13  2  0  0  0
 12 32  1  0  0  0
 13 14  1  0  0  0
 13 33  1  0  0  0
 14 15  1  0  0  0
 14 23  2  0  0  0
 15 16  1  0  0  0
 15 34  1  0  0  0
 16 17  1  0  0  0
 16 35  1  0  0  0
 16 36  1  0  0  0
 17 18  2  0  0  0
 17 22  1  0  0  0
 18 19  1  0  0  0
 18 37  1  0  0  0
 19 20  2  0  0  0
 19 38  1  0  0  0
 20 21  1  0  0  0
 20 39  1  0  0  0
 21 22  2  0  0  0
 21 40  1  0  0  0
 22 41  1  0  0  0
 23 42  1  0  0  0
 24 25  1  0  0  0
 25 26  1  0  0  0
 26 27  2  0  0  0
 26 28  1  0  0  0
M  CHG  2   3  -1  28  -1
M  END
> <s_m_entry_id>
532

> <s_m_Source_Path>
/projects/mai/users/kmzp800_harry/pmx_colab/docking_jobs/ptp1b/glide-dock_SP_ptp1b_mcs_2

> <s_m_Source_File>
glide-dock_SP_ptp1b_mcs_2_pv.maegz

> <i_m_Source_File_Index>
17

> <r_i_docking_score>
-6.686617259342

> <r_i_glide_gscore>
-6.686617259342

> <r_i_glide_emodel>
-84.3019498500642

$$$$
lig_23477
                    3D
 Schrodinger Suite 2021-4.
 43 45  0  0  1  0            999 V2000
   39.1916   17.5173   12.6720 O   0  0  0  0  0  0
   40.3605   17.0695   12.6889 C   0  0  0  0  0  0
   41.2234   17.3023   11.8120 O   0  5  0  0  0  0
   40.7519   16.1475   13.8458 C   0  0  0  0  0  0
   42.1090   15.7267   13.7344 O   0  0  0  0  0  0
   42.5176   14.9282   14.7448 C   0  0  0  0  0  0
   42.1647   13.5649   14.8797 C   0  0  0  0  0  0
   41.1736   12.6864   13.5408 Br  0  0  0  0  0  0
   42.6105   12.9372   16.0054 C   0  0  0  0  0  0
   42.3415   11.5890   16.4788 C   0  0  0  0  0  0
   43.3836   10.7665   16.9473 C   0  0  0  0  0  0
   43.1189    9.4566   17.3752 C   0  0  0  0  0  0
   41.8123    8.9569   17.3265 C   0  0  0  0  0  0
   40.7521    9.7609   16.8672 C   0  0  0  0  0  0
   39.4429    9.2682   16.8306 N   0  0  0  0  0  0
   39.1856    7.8331   16.8863 C   0  0  0  0  0  0
   37.7000    7.5759   17.1571 C   0  0  0  0  0  0
   36.8547    7.9670   15.9342 C   0  0  0  0  0  0
   37.3033    7.2587   14.7831 O   0  0  0  0  0  0
   38.6527    7.5561   14.4321 C   0  0  0  0  0  0
   39.5954    7.1405   15.5741 C   0  0  0  0  0  0
   41.0235   11.0822   16.4565 C   0  0  0  0  0  0
   43.6261   14.0151   16.9117 S   0  0  0  0  0  0
   43.3518   15.3140   15.7614 C   0  0  0  0  0  0
   44.0135   16.5876   16.0407 C   0  0  0  0  0  0
   43.8513   17.5483   15.2588 O   0  0  0  0  0  0
   44.7423   16.6872   17.0482 O   0  5  0  0  0  0
   40.6068   16.6785   14.7853 H   0  0  0  0  0  0
   40.0872   15.2881   13.8585 H   0  0  0  0  0  0
   44.3952   11.1362   16.9778 H   0  0  0  0  0  0
   43.9124    8.8280   17.7426 H   0  0  0  0  0  0
   41.6397    7.9480   17.6561 H   0  0  0  0  0  0
   38.6829    9.8680   16.5585 H   0  0  0  0  0  0
   39.7510    7.4159   17.7186 H   0  0  0  0  0  0
   37.5424    6.5207   17.3853 H   0  0  0  0  0  0
   37.3780    8.1320   18.0384 H   0  0  0  0  0  0
   35.8075    7.7286   16.1135 H   0  0  0  0  0  0
   36.9074    9.0423   15.7545 H   0  0  0  0  0  0
   38.9112    7.0188   13.5204 H   0  0  0  0  0  0
   38.7567    8.6203   14.2111 H   0  0  0  0  0  0
   40.6276    7.3811   15.3159 H   0  0  0  0  0  0
   39.5596    6.0572   15.6983 H   0  0  0  0  0  0
   40.2250   11.7232   16.1122 H   0  0  0  0  0  0
  1  2  2  0  0  0
  2  3  1  0  0  0
  2  4  1  0  0  0
  4  5  1  0  0  0
  4 28  1  0  0  0
  4 29  1  0  0  0
  5  6  1  0  0  0
  6  7  1  0  0  0
  6 24  2  0  0  0
  7  8  1  0  0  0
  7  9  2  0  0  0
  9 10  1  0  0  0
  9 23  1  0  0  0
 10 11  2  0  0  0
 10 22  1  0  0  0
 11 12  1  0  0  0
 11 30  1  0  0  0
 12 13  2  0  0  0
 12 31  1  0  0  0
 13 14  1  0  0  0
 13 32  1  0  0  0
 14 15  1  0  0  0
 14 22  2  0  0  0
 15 16  1  0  0  0
 15 33  1  0  0  0
 16 17  1  0  0  0
 16 21  1  0  0  0
 16 34  1  0  0  0
 17 18  1  0  0  0
 17 35  1  0  0  0
 17 36  1  0  0  0
 18 19  1  0  0  0
 18 37  1  0  0  0
 18 38  1  0  0  0
 19 20  1  0  0  0
 20 21  1  0  0  0
 20 39  1  0  0  0
 20 40  1  0  0  0
 21 41  1  0  0  0
 21 42  1  0  0  0
 22 43  1  0  0  0
 23 24  1  0  0  0
 24 25  1  0  0  0
 25 26  2  0  0  0
 25 27  1  0  0  0
M  CHG  2   3  -1  27  -1
M  END
> <s_m_entry_id>
533

> <s_m_Source_Path>
/projects/mai/users/kmzp800_harry/pmx_colab/docking_jobs/ptp1b/glide-dock_SP_ptp1b_mcs_2

> <s_m_Source_File>
glide-dock_SP_ptp1b_mcs_2_pv.maegz

> <i_m_Source_File_Index>
18

> <r_i_docking_score>
-6.4742734116021

> <r_i_glide_gscore>
-6.4742734116021

> <r_i_glide_emodel>
-79.4248154649843

$$$$
lig_23468
                    3D
 Schrodinger Suite 2021-4.
 37 38  0  0  1  0            999 V2000
   39.2011   17.5487   12.6944 O   0  0  0  0  0  0
   40.3621   17.0678   12.6946 C   0  0  0  0  0  0
   41.2277   17.3114   11.8256 O   0  5  0  0  0  0
   40.7381   16.1249   13.8385 C   0  0  0  0  0  0
   42.1058   15.7293   13.7391 O   0  0  0  0  0  0
   42.5172   14.9307   14.7467 C   0  0  0  0  0  0
   42.1732   13.5595   14.8773 C   0  0  0  0  0  0
   41.1764   12.6875   13.5401 Br  0  0  0  0  0  0
   42.6150   12.9398   16.0093 C   0  0  0  0  0  0
   42.3395   11.5909   16.4809 C   0  0  0  0  0  0
   43.3707   10.7630   16.9535 C   0  0  0  0  0  0
   43.0946    9.4543   17.3764 C   0  0  0  0  0  0
   41.7816    8.9583   17.3083 C   0  0  0  0  0  0
   40.7365    9.7782   16.8360 C   0  0  0  0  0  0
   39.3961    9.3470   16.6795 N   0  0  0  0  0  0
   38.7506    8.3428   17.3044 C   0  0  0  0  0  0
   39.2524    7.6177   18.1637 O   0  0  0  0  0  0
   37.2892    8.1518   16.8976 C   0  0  0  0  0  0
   41.0228   11.0912   16.4407 C   0  0  0  0  0  0
   43.6313   14.0198   16.9178 S   0  0  0  0  0  0
   43.3567   15.3187   15.7618 C   0  0  0  0  0  0
   44.0238   16.5977   16.0426 C   0  0  0  0  0  0
   43.8655   17.5545   15.2521 O   0  0  0  0  0  0
   44.7509   16.6800   17.0552 O   0  5  0  0  0  0
   40.1149   15.2399   13.7825 H   0  0  0  0  0  0
   40.5293   16.6037   14.7989 H   0  0  0  0  0  0
   44.3832   11.1269   16.9847 H   0  0  0  0  0  0
   43.8894    8.8265   17.7410 H   0  0  0  0  0  0
   41.6019    7.9437   17.6145 H   0  0  0  0  0  0
   38.8372    9.9043   16.0530 H   0  0  0  0  0  0
   40.2282   11.7269   16.1051 H   0  0  0  0  0  0
   36.5147    7.2313   17.8552 C   0  0  0  0  0  0
   37.2456    7.7418   15.8891 H   0  0  0  0  0  0
   35.4940    7.0834   17.5066 H   0  0  0  0  0  0
   36.8082    9.1288   16.8616 H   0  0  0  0  0  0
   36.4642    7.6531   18.8581 H   0  0  0  0  0  0
   36.9857    6.2491   17.9254 H   0  0  0  0  0  0
  1  2  2  0  0  0
  2  3  1  0  0  0
  2  4  1  0  0  0
  4  5  1  0  0  0
  4 25  1  0  0  0
  4 26  1  0  0  0
  5  6  1  0  0  0
  6  7  1  0  0  0
  6 21  2  0  0  0
  7  8  1  0  0  0
  7  9  2  0  0  0
  9 10  1  0  0  0
  9 20  1  0  0  0
 10 11  2  0  0  0
 10 19  1  0  0  0
 11 12  1  0  0  0
 11 27  1  0  0  0
 12 13  2  0  0  0
 12 28  1  0  0  0
 13 14  1  0  0  0
 13 29  1  0  0  0
 14 15  1  0  0  0
 14 19  2  0  0  0
 15 16  1  0  0  0
 15 30  1  0  0  0
 16 17  2  0  0  0
 16 18  1  0  0  0
 18 32  1  0  0  0
 18 33  1  0  0  0
 18 35  1  0  0  0
 19 31  1  0  0  0
 20 21  1  0  0  0
 21 22  1  0  0  0
 22 23  2  0  0  0
 22 24  1  0  0  0
 32 34  1  0  0  0
 32 36  1  0  0  0
 32 37  1  0  0  0
M  CHG  2   3  -1  24  -1
M  END
> <s_m_entry_id>
534

> <s_m_Source_Path>
/projects/mai/users/kmzp800_harry/pmx_colab/docking_jobs/ptp1b/glide-dock_SP_ptp1b_mcs_2

> <s_m_Source_File>
glide-dock_SP_ptp1b_mcs_2_pv.maegz

> <i_m_Source_File_Index>
19

> <r_i_docking_score>
-6.46708875360414

> <r_i_glide_gscore>
-6.46708875360414

> <r_i_glide_emodel>
-78.7950321778492

$$$$
lig_23475
                    3D
 Schrodinger Suite 2021-4.
 42 44  0  0  1  0            999 V2000
   39.1887   17.4898   12.6781 O   0  0  0  0  0  0
   40.3657   17.0638   12.6959 C   0  0  0  0  0  0
   41.2238   17.3118   11.8163 O   0  5  0  0  0  0
   40.7633   16.1462   13.8576 C   0  0  0  0  0  0
   42.1209   15.7272   13.7472 O   0  0  0  0  0  0
   42.5263   14.9231   14.7531 C   0  0  0  0  0  0
   42.1707   13.5592   14.8883 C   0  0  0  0  0  0
   41.1755   12.6804   13.5511 Br  0  0  0  0  0  0
   42.6161   12.9301   16.0133 C   0  0  0  0  0  0
   42.3457   11.5803   16.4855 C   0  0  0  0  0  0
   43.3873   10.7553   16.9522 C   0  0  0  0  0  0
   43.1182    9.4460   17.3845 C   0  0  0  0  0  0
   41.8102    8.9502   17.3435 C   0  0  0  0  0  0
   40.7520    9.7556   16.8740 C   0  0  0  0  0  0
   39.4434    9.2628   16.8368 N   0  0  0  0  0  0
   41.0287   11.0721   16.4598 C   0  0  0  0  0  0
   43.6280   14.0090   16.9224 S   0  0  0  0  0  0
   43.3582   15.3082   15.7696 C   0  0  0  0  0  0
   44.0138   16.5823   16.0502 C   0  0  0  0  0  0
   43.8476   17.5459   15.2682 O   0  0  0  0  0  0
   44.7430   16.6880   17.0592 O   0  5  0  0  0  0
   40.5853   16.6652   14.8023 H   0  0  0  0  0  0
   40.1353   15.2605   13.8544 H   0  0  0  0  0  0
   44.3993   11.1212   16.9769 H   0  0  0  0  0  0
   43.9120    8.8197   17.7547 H   0  0  0  0  0  0
   41.6349    7.9443   17.6783 H   0  0  0  0  0  0
   38.7011    9.8231   16.4504 H   0  0  0  0  0  0
   39.7070    7.5564   18.0103 H   0  0  0  0  0  0
   40.2324   11.7125   16.1128 H   0  0  0  0  0  0
   39.1630    7.8603   17.1140 C   0  0  0  0  0  0
   37.6603    7.6600   17.3084 C   0  0  0  0  0  0
   37.0899    7.3618   15.9142 C   0  0  0  0  0  0
   38.2907    7.1195   14.9880 C   0  0  0  0  0  0
   39.5103    6.9899   15.9025 C   0  0  0  0  0  0
   37.4643    6.8340   17.9967 H   0  0  0  0  0  0
   37.2048    8.5494   17.7400 H   0  0  0  0  0  0
   36.4342    6.4919   15.9380 H   0  0  0  0  0  0
   36.4999    8.2080   15.5603 H   0  0  0  0  0  0
   38.1583    6.2461   14.3506 H   0  0  0  0  0  0
   38.4306    7.9837   14.3353 H   0  0  0  0  0  0
   40.4184    7.3315   15.4055 H   0  0  0  0  0  0
   39.6736    5.9498   16.1961 H   0  0  0  0  0  0
  1  2  2  0  0  0
  2  3  1  0  0  0
  2  4  1  0  0  0
  4  5  1  0  0  0
  4 22  1  0  0  0
  4 23  1  0  0  0
  5  6  1  0  0  0
  6  7  1  0  0  0
  6 18  2  0  0  0
  7  8  1  0  0  0
  7  9  2  0  0  0
  9 10  1  0  0  0
  9 17  1  0  0  0
 10 11  2  0  0  0
 10 16  1  0  0  0
 11 12  1  0  0  0
 11 24  1  0  0  0
 12 13  2  0  0  0
 12 25  1  0  0  0
 13 14  1  0  0  0
 13 26  1  0  0  0
 14 15  1  0  0  0
 14 16  2  0  0  0
 15 27  1  0  0  0
 15 30  1  0  0  0
 16 29  1  0  0  0
 17 18  1  0  0  0
 18 19  1  0  0  0
 19 20  2  0  0  0
 19 21  1  0  0  0
 28 30  1  0  0  0
 30 31  1  0  0  0
 30 34  1  0  0  0
 31 32  1  0  0  0
 31 35  1  0  0  0
 31 36  1  0  0  0
 32 33  1  0  0  0
 32 37  1  0  0  0
 32 38  1  0  0  0
 33 34  1  0  0  0
 33 39  1  0  0  0
 33 40  1  0  0  0
 34 41  1  0  0  0
 34 42  1  0  0  0
M  CHG  2   3  -1  21  -1
M  END
> <s_m_entry_id>
535

> <s_m_Source_Path>
/projects/mai/users/kmzp800_harry/pmx_colab/docking_jobs/ptp1b/glide-dock_SP_ptp1b_mcs_2

> <s_m_Source_File>
glide-dock_SP_ptp1b_mcs_2_pv.maegz

> <i_m_Source_File_Index>
20

> <r_i_docking_score>
-6.46121537558707

> <r_i_glide_gscore>
-6.46121537558707

> <r_i_glide_emodel>
-78.343862067783

$$$$
lig_23469
                    3D
 Schrodinger Suite 2021-4.
 41 43  0  0  1  0            999 V2000
   39.1924   17.5212   12.6815 O   0  0  0  0  0  0
   40.3605   17.0696   12.6888 C   0  0  0  0  0  0
   41.2210   17.3070   11.8117 O   0  5  0  0  0  0
   40.7506   16.1440   13.8455 C   0  0  0  0  0  0
   42.1093   15.7308   13.7350 O   0  0  0  0  0  0
   42.5201   14.9304   14.7453 C   0  0  0  0  0  0
   42.1673   13.5646   14.8790 C   0  0  0  0  0  0
   41.1747   12.6864   13.5427 Br  0  0  0  0  0  0
   42.6125   12.9391   16.0064 C   0  0  0  0  0  0
   42.3393   11.5914   16.4779 C   0  0  0  0  0  0
   43.3770   10.7645   16.9498 C   0  0  0  0  0  0
   43.1034    9.4544   17.3763 C   0  0  0  0  0  0
   41.7906    8.9595   17.3290 C   0  0  0  0  0  0
   40.7386    9.7808   16.8831 C   0  0  0  0  0  0
   39.4180    9.2788   16.8488 N   0  0  0  0  0  0
   38.8152    8.5848   17.8321 C   0  0  0  0  0  0
   39.1321    8.6708   19.0196 O   0  0  0  0  0  0
   37.6755    7.7012   17.4045 C   0  0  0  0  0  0
   37.0320    6.8763   18.3557 C   0  0  0  0  0  0
   35.9849    6.0187   17.9678 C   0  0  0  0  0  0
   35.5731    5.9731   16.6230 C   0  0  0  0  0  0
   36.2010    6.7956   15.6687 C   0  0  0  0  0  0
   37.2462    7.6551   16.0559 C   0  0  0  0  0  0
   41.0188   11.0911   16.4519 C   0  0  0  0  0  0
   43.6322   14.0179   16.9132 S   0  0  0  0  0  0
   43.3575   15.3179   15.7614 C   0  0  0  0  0  0
   44.0177   16.5937   16.0389 C   0  0  0  0  0  0
   43.8514   17.5528   15.2537 O   0  0  0  0  0  0
   44.7478   16.6849   17.0484 O   0  5  0  0  0  0
   40.6028   16.6689   14.7887 H   0  0  0  0  0  0
   40.0888   15.2821   13.8552 H   0  0  0  0  0  0
   44.3889   11.1329   16.9808 H   0  0  0  0  0  0
   43.9001    8.8280   17.7418 H   0  0  0  0  0  0
   41.5888    7.9469   17.6418 H   0  0  0  0  0  0
   38.8922    9.4285   16.0037 H   0  0  0  0  0  0
   37.3434    6.8918   19.3913 H   0  0  0  0  0  0
   35.5004    5.3937   18.7034 H   0  0  0  0  0  0
   34.7675    5.3184   16.3252 H   0  0  0  0  0  0
   35.8801    6.7708   14.6381 H   0  0  0  0  0  0
   37.7117    8.2718   15.3012 H   0  0  0  0  0  0
   40.2173   11.7327   16.1236 H   0  0  0  0  0  0
  1  2  2  0  0  0
  2  3  1  0  0  0
  2  4  1  0  0  0
  4  5  1  0  0  0
  4 30  1  0  0  0
  4 31  1  0  0  0
  5  6  1  0  0  0
  6  7  1  0  0  0
  6 26  2  0  0  0
  7  8  1  0  0  0
  7  9  2  0  0  0
  9 10  1  0  0  0
  9 25  1  0  0  0
 10 11  2  0  0  0
 10 24  1  0  0  0
 11 12  1  0  0  0
 11 32  1  0  0  0
 12 13  2  0  0  0
 12 33  1  0  0  0
 13 14  1  0  0  0
 13 34  1  0  0  0
 14 15  1  0  0  0
 14 24  2  0  0  0
 15 16  1  0  0  0
 15 35  1  0  0  0
 16 17  2  0  0  0
 16 18  1  0  0  0
 18 19  2  0  0  0
 18 23  1  0  0  0
 19 20  1  0  0  0
 19 36  1  0  0  0
 20 21  2  0  0  0
 20 37  1  0  0  0
 21 22  1  0  0  0
 21 38  1  0  0  0
 22 23  2  0  0  0
 22 39  1  0  0  0
 23 40  1  0  0  0
 24 41  1  0  0  0
 25 26  1  0  0  0
 26 27  1  0  0  0
 27 28  2  0  0  0
 27 29  1  0  0  0
M  CHG  2   3  -1  29  -1
M  END
> <s_m_entry_id>
536

> <s_m_Source_Path>
/projects/mai/users/kmzp800_harry/pmx_colab/docking_jobs/ptp1b/glide-dock_SP_ptp1b_mcs_2

> <s_m_Source_File>
glide-dock_SP_ptp1b_mcs_2_pv.maegz

> <i_m_Source_File_Index>
21

> <r_i_docking_score>
-5.91281341088655

> <r_i_glide_gscore>
-5.91281341088655

> <r_i_glide_emodel>
-74.0712177454973

$$$$
lig_23470
                    3D
 Schrodinger Suite 2021-4.
 42 43  0  0  1  0            999 V2000
   39.1954   17.5377   12.6841 O   0  0  0  0  0  0
   40.3596   17.0701   12.6864 C   0  0  0  0  0  0
   41.2258   17.3094   11.8134 O   0  5  0  0  0  0
   40.7406   16.1326   13.8353 C   0  0  0  0  0  0
   42.1052   15.7366   13.7382 O   0  0  0  0  0  0
   42.5165   14.9336   14.7441 C   0  0  0  0  0  0
   42.1650   13.5618   14.8724 C   0  0  0  0  0  0
   41.1781   12.6864   13.5303 Br  0  0  0  0  0  0
   42.6096   12.9399   16.0029 C   0  0  0  0  0  0
   42.3334   11.5893   16.4727 C   0  0  0  0  0  0
   41.0133   11.0947   16.4400 C   0  0  0  0  0  0
   40.7286    9.7820   16.8397 C   0  0  0  0  0  0
   41.7619    8.9608   17.3043 C   0  0  0  0  0  0
   43.0817    9.4462   17.3653 C   0  0  0  0  0  0
   44.1160    8.5866   17.8106 N   0  0  0  0  0  0
   44.1813    7.9523   18.9949 C   0  0  0  0  0  0
   45.0808    7.1608   19.2800 O   0  0  0  0  0  0
   43.1832    8.2808   19.8245 N   0  0  0  0  0  0
   43.3687   10.7580   16.9372 C   0  0  0  0  0  0
   43.6270   14.0181   16.9126 S   0  0  0  0  0  0
   43.3540   15.3174   15.7608 C   0  0  0  0  0  0
   44.0175   16.5992   16.0385 C   0  0  0  0  0  0
   43.8504   17.5546   15.2515 O   0  0  0  0  0  0
   44.7435   16.6859   17.0507 O   0  5  0  0  0  0
   40.5283   16.6121   14.7936 H   0  0  0  0  0  0
   40.1155   15.2476   13.7803 H   0  0  0  0  0  0
   40.2080   11.7178   16.0936 H   0  0  0  0  0  0
   39.7162    9.4131   16.7801 H   0  0  0  0  0  0
   41.5448    7.9531   17.6247 H   0  0  0  0  0  0
   44.8585    8.4135   17.1579 H   0  0  0  0  0  0
   44.3764   11.1352   16.9572 H   0  0  0  0  0  0
   42.9581    7.7372   21.1504 C   0  0  0  0  0  0
   42.5030    8.9463   19.4785 H   0  0  0  0  0  0
   43.6818    8.5938   22.1991 C   0  0  0  0  0  0
   41.4496    7.6596   21.4209 C   0  0  0  0  0  0
   43.3572    6.7217   21.1904 H   0  0  0  0  0  0
   43.5278    8.1949   23.2015 H   0  0  0  0  0  0
   44.7564    8.6150   22.0155 H   0  0  0  0  0  0
   43.3215    9.6233   22.1903 H   0  0  0  0  0  0
   41.2516    7.2303   22.4030 H   0  0  0  0  0  0
   40.9843    8.6458   21.3887 H   0  0  0  0  0  0
   40.9508    7.0300   20.6822 H   0  0  0  0  0  0
  1  2  2  0  0  0
  2  3  1  0  0  0
  2  4  1  0  0  0
  4  5  1  0  0  0
  4 25  1  0  0  0
  4 26  1  0  0  0
  5  6  1  0  0  0
  6  7  1  0  0  0
  6 21  2  0  0  0
  7  8  1  0  0  0
  7  9  2  0  0  0
  9 10  1  0  0  0
  9 20  1  0  0  0
 10 11  2  0  0  0
 10 19  1  0  0  0
 11 12  1  0  0  0
 11 27  1  0  0  0
 12 13  2  0  0  0
 12 28  1  0  0  0
 13 14  1  0  0  0
 13 29  1  0  0  0
 14 15  1  0  0  0
 14 19  2  0  0  0
 15 16  1  0  0  0
 15 30  1  0  0  0
 16 17  2  0  0  0
 16 18  1  0  0  0
 18 32  1  0  0  0
 18 33  1  0  0  0
 19 31  1  0  0  0
 20 21  1  0  0  0
 21 22  1  0  0  0
 22 23  2  0  0  0
 22 24  1  0  0  0
 32 34  1  0  0  0
 32 35  1  0  0  0
 32 36  1  0  0  0
 34 37  1  0  0  0
 34 38  1  0  0  0
 34 39  1  0  0  0
 35 40  1  0  0  0
 35 41  1  0  0  0
 35 42  1  0  0  0
M  CHG  2   3  -1  24  -1
M  END
> <s_m_entry_id>
537

> <s_m_Source_Path>
/projects/mai/users/kmzp800_harry/pmx_colab/docking_jobs/ptp1b/glide-dock_SP_ptp1b_mcs_2

> <s_m_Source_File>
glide-dock_SP_ptp1b_mcs_2_pv.maegz

> <i_m_Source_File_Index>
22

> <r_i_docking_score>
-5.61027275053706

> <r_i_glide_gscore>
-5.61027275053706

> <r_i_glide_emodel>
-73.5375012401739

$$$$
lig_23471
                    3D
 Schrodinger Suite 2021-4.
 35 36  0  0  1  0            999 V2000
   39.1847   17.5049   12.6686 O   0  0  0  0  0  0
   40.3583   17.0705   12.6905 C   0  0  0  0  0  0
   41.2218   17.3119   11.8167 O   0  5  0  0  0  0
   40.7605   16.1487   13.8445 C   0  0  0  0  0  0
   42.1263   15.7557   13.7474 O   0  0  0  0  0  0
   42.5183   14.9391   14.7501 C   0  0  0  0  0  0
   42.1459   13.5766   14.8841 C   0  0  0  0  0  0
   41.1745   12.6865   13.5428 Br  0  0  0  0  0  0
   42.5945   12.9364   15.9998 C   0  0  0  0  0  0
   42.3198   11.5800   16.4510 C   0  0  0  0  0  0
   41.0000   11.0854   16.4424 C   0  0  0  0  0  0
   40.7236    9.7762   16.8829 C   0  0  0  0  0  0
   41.7626    8.9559   17.3547 C   0  0  0  0  0  0
   43.0812    9.4472   17.3877 C   0  0  0  0  0  0
   44.1408    8.6324   17.8687 N   0  0  0  0  0  0
   44.2014    8.0041   19.1053 C   0  0  0  0  0  0
   44.9788    7.0899   19.3871 O   0  0  0  0  0  0
   43.2724    8.5079   19.9289 O   0  0  0  0  0  0
   43.3593   10.7441   16.9038 C   0  0  0  0  0  0
   43.6221   14.0016   16.9078 S   0  0  0  0  0  0
   43.3527   15.3125   15.7694 C   0  0  0  0  0  0
   44.0089   16.5871   16.0432 C   0  0  0  0  0  0
   43.8372   17.5496   15.2637 O   0  0  0  0  0  0
   44.7441   16.6865   17.0469 O   0  5  0  0  0  0
   40.5853   16.6584   14.7938 H   0  0  0  0  0  0
   40.1261   15.2669   13.8168 H   0  0  0  0  0  0
   40.1866   11.7077   16.0964 H   0  0  0  0  0  0
   39.7133    9.4042   16.8644 H   0  0  0  0  0  0
   41.5403    7.9533   17.6969 H   0  0  0  0  0  0
   44.8566    8.3618   17.2130 H   0  0  0  0  0  0
   44.3699   11.1176   16.9158 H   0  0  0  0  0  0
   42.6939    7.6846   20.9439 C   0  0  0  0  0  0
   42.1830    8.3164   21.6740 H   0  0  0  0  0  0
   41.9263    7.0609   20.4715 H   0  0  0  0  0  0
   43.4261    7.0485   21.4559 H   0  0  0  0  0  0
  1  2  2  0  0  0
  2  3  1  0  0  0
  2  4  1  0  0  0
  4  5  1  0  0  0
  4 25  1  0  0  0
  4 26  1  0  0  0
  5  6  1  0  0  0
  6  7  1  0  0  0
  6 21  2  0  0  0
  7  8  1  0  0  0
  7  9  2  0  0  0
  9 10  1  0  0  0
  9 20  1  0  0  0
 10 11  2  0  0  0
 10 19  1  0  0  0
 11 12  1  0  0  0
 11 27  1  0  0  0
 12 13  2  0  0  0
 12 28  1  0  0  0
 13 14  1  0  0  0
 13 29  1  0  0  0
 14 15  1  0  0  0
 14 19  2  0  0  0
 15 16  1  0  0  0
 15 30  1  0  0  0
 16 17  2  0  0  0
 16 18  1  0  0  0
 18 32  1  0  0  0
 19 31  1  0  0  0
 20 21  1  0  0  0
 21 22  1  0  0  0
 22 23  2  0  0  0
 22 24  1  0  0  0
 32 33  1  0  0  0
 32 34  1  0  0  0
 32 35  1  0  0  0
M  CHG  2   3  -1  24  -1
M  END
> <s_m_entry_id>
538

> <s_m_Source_Path>
/projects/mai/users/kmzp800_harry/pmx_colab/docking_jobs/ptp1b/glide-dock_SP_ptp1b_mcs_2

> <s_m_Source_File>
glide-dock_SP_ptp1b_mcs_2_pv.maegz

> <i_m_Source_File_Index>
23

> <r_i_docking_score>
-5.40737484955346

> <r_i_glide_gscore>
-5.40737484955346

> <r_i_glide_emodel>
-66.7684792712291

$$$$
