lig_23475
                    3D
 Schrodinger Suite 2021-4.
 42 44  0  0  1  0            999 V2000
   43.0170   12.1450   17.4490 C   0  0  0  0  0  0
   43.4310   11.3110   18.8540 S   0  0  0  0  0  0
   42.7120    9.8530   18.4460 C   0  0  0  0  0  0
   42.1280    9.9790   17.1880 C   0  0  0  0  0  0
   42.2830   11.2750   16.6230 C   0  0  0  0  0  0
   41.4430   11.8420   14.9860 Br  0  0  0  0  0  0
   44.0000   15.7740   18.0050 C   0  0  0  0  0  0
   43.6750   14.4390   18.2610 C   0  0  0  0  0  0
   43.3880   13.5590   17.2080 C   0  0  0  0  0  0
   43.4170   14.0500   15.8950 C   0  0  0  0  0  0
   43.7420   15.3880   15.6280 C   0  0  0  0  0  0
   44.0340   16.2460   16.6910 C   0  0  0  0  0  0
   43.7770   15.8990   14.2880 N   0  0  0  0  0  0
   42.6210   16.3250   13.5000 C   0  0  0  0  0  0
   41.5830   17.0130   14.3640 C   0  0  0  0  0  0
   40.2500   16.6040   13.7810 C   0  0  0  0  0  0
   40.4700   15.2230   13.2010 C   0  0  0  0  0  0
   41.9390   15.1480   12.8230 C   0  0  0  0  0  0
   42.7220    8.6520   19.2970 C   0  0  0  0  0  0
   41.7330    8.3910   20.0310 O   0  5  0  0  0  0
   43.8170    7.7960   19.3020 O   0  0  0  0  0  0
   41.4570    8.8950   16.6030 O   0  0  0  0  0  0
   40.1680    8.4430   16.9830 C   0  0  0  0  0  0
   39.1700    8.8810   15.9740 C   0  0  0  0  0  0
   39.4350    8.7960   14.7460 O   0  0  0  0  0  0
   37.9260    9.3440   16.3830 O   0  5  0  0  0  0
   44.2292   16.4535   18.8391 H   0  0  0  0  0  0
   43.6441   14.0752   19.2987 H   0  0  0  0  0  0
   43.1808   13.3742   15.0599 H   0  0  0  0  0  0
   44.2916   17.2968   16.4925 H   0  0  0  0  0  0
   44.7014   15.9726   13.8396 H   0  0  0  0  0  0
   43.0120   17.0222   12.7443 H   0  0  0  0  0  0
   41.6666   16.6779   15.4084 H   0  0  0  0  0  0
   41.7116   18.1054   14.3708 H   0  0  0  0  0  0
   39.4800   16.5733   14.5660 H   0  0  0  0  0  0
   39.9016   17.3165   13.0187 H   0  0  0  0  0  0
   40.2295   14.4531   13.9489 H   0  0  0  0  0  0
   39.8234   15.0484   12.3284 H   0  0  0  0  0  0
   42.0543   15.2189   11.7314 H   0  0  0  0  0  0
   42.3832   14.1939   13.1430 H   0  0  0  0  0  0
   40.1685    7.3447   17.0449 H   0  0  0  0  0  0
   39.9064    8.8665   17.9639 H   0  0  0  0  0  0
  1  2  1  0  0  0
  1  5  2  0  0  0
  1  9  1  0  0  0
  2  3  1  0  0  0
  3 19  1  0  0  0
  3  4  2  0  0  0
  4  5  1  0  0  0
  4 22  1  0  0  0
  5  6  1  0  0  0
  7  8  2  0  0  0
  7 12  1  0  0  0
  7 27  1  0  0  0
  8  9  1  0  0  0
  8 28  1  0  0  0
  9 10  2  0  0  0
 10 11  1  0  0  0
 10 29  1  0  0  0
 11 12  2  0  0  0
 11 13  1  0  0  0
 12 30  1  0  0  0
 13 14  1  0  0  0
 13 31  1  0  0  0
 14 15  1  0  0  0
 14 18  1  0  0  0
 14 32  1  0  0  0
 15 16  1  0  0  0
 15 33  1  0  0  0
 15 34  1  0  0  0
 16 17  1  0  0  0
 16 35  1  0  0  0
 16 36  1  0  0  0
 17 18  1  0  0  0
 17 37  1  0  0  0
 17 38  1  0  0  0
 18 39  1  0  0  0
 18 40  1  0  0  0
 19 21  2  0  0  0
 19 20  1  0  0  0
 22 23  1  0  0  0
 23 24  1  0  0  0
 23 41  1  0  0  0
 23 42  1  0  0  0
 24 26  1  0  0  0
 24 25  2  0  0  0
M  CHG  2  20  -1  26  -1
M  END
> <s_m_entry_id>
1

> <s_m_entry_id>
1346

> <MODEL>
1

> <REMARK>
 VINA RESULT:    -7.262      0.000      0.000
 INTER + INTRA:         -10.984
 INTER:                 -10.233
 INTRA:                  -0.750
 UNBOUND:                -0.750
  Name = /scratch/kmzp800/tmp05ig6f2t/tmpfxihqtv6.pdb
  7 active torsions:
  status: ('A' for Active; 'I' for Inactive)
    1  A    between atoms: C3_3  and  C4_4
    2  A    between atoms: C5_6  and  C6_7
    3  A    between atoms: C7_10  and  O3_11
    4  A    between atoms: O3_11  and  C8_12
    5  A    between atoms: C8_12  and  C9_13
    6  A    between atoms: C12_19  and  N1_20
    7  A    between atoms: N1_20  and  C13_21
                            x       y       z     vdW  Elec       q    Type
                         _______ _______ _______ _____ _____    ______ ____

> <TORSDO>
F 7

> <grid_id>
ptp1b-prepared

> <grid_path>
ptp1b_vina.pdbqt

> <grid_filename>
ptp1b_vina.pdbqt

> <docking_score>
-7.262

> <compound_name>
lig_23475

> <index_string>
0:0:0

> <s_m_Source_Path>
/projects/mai/users/kmzp800_harry/pmx_colab/docking_jobs/ptp1b/vina_prep

> <s_m_Source_File>
ptp1b_confs_vina_naive.sdf

> <i_m_Source_File_Index>
1

> <s_m_Source_Path>
/projects/mai/users/kmzp800_harry/pmx_colab/docking_jobs/ptp1b/vina_prep

> <s_m_Source_File>
ptp1b_vina_naive_confs.sdf

> <i_m_Source_File_Index>
1

$$$$
lig_23473
                    3D
 Schrodinger Suite 2021-4.
 41 43  0  0  1  0            999 V2000
   41.7940   11.1050   15.7140 C   0  0  0  0  0  0
   42.7370   10.4780   16.5320 C   0  0  0  0  0  0
   42.5050    9.1880   17.0130 C   0  0  0  0  0  0
   41.3250    8.5180   16.6750 C   0  0  0  0  0  0
   40.3640    9.1290   15.8590 C   0  0  0  0  0  0
   40.6110   10.4250   15.3850 C   0  0  0  0  0  0
   39.1130    8.4360   15.4700 C   0  0  0  0  0  0
   38.6710    8.1290   13.8730 S   0  0  0  0  0  0
   37.2230    7.3430   14.1930 C   0  0  0  0  0  0
   37.0450    7.3270   15.5820 C   0  0  0  0  0  0
   38.1050    7.9140   16.2950 C   0  0  0  0  0  0
   38.0580    8.0230   18.2100 Br  0  0  0  0  0  0
   36.4060    6.6930   13.1550 C   0  0  0  0  0  0
   36.8070    5.6250   12.6220 O   0  0  0  0  0  0
   35.1640    7.2020   12.8000 O   0  5  0  0  0  0
   35.9230    6.8190   16.2510 O   0  0  0  0  0  0
   35.6880    5.4300   16.4430 C   0  0  0  0  0  0
   34.3580    5.0490   15.8900 C   0  0  0  0  0  0
   33.3090    5.3250   16.5270 O   0  5  0  0  0  0
   34.2730    4.4290   14.6510 O   0  0  0  0  0  0
   42.0540   12.3970   15.2430 O   0  0  0  0  0  0
   41.2020   13.0870   14.3310 C   0  0  0  0  0  0
   41.9560   17.3090   14.4250 C   0  0  0  0  0  0
   40.7820   16.8200   13.8450 C   0  0  0  0  0  0
   40.5360   15.4440   13.8190 C   0  0  0  0  0  0
   41.4650   14.5550   14.3710 C   0  0  0  0  0  0
   42.6390   15.0470   14.9520 C   0  0  0  0  0  0
   42.8850   16.4220   14.9780 C   0  0  0  0  0  0
   43.6663   11.0029   16.7983 H   0  0  0  0  0  0
   43.2501    8.6989   17.6576 H   0  0  0  0  0  0
   41.1495    7.5003   17.0539 H   0  0  0  0  0  0
   39.8648   10.9175   14.7442 H   0  0  0  0  0  0
   36.4727    4.8549   15.9296 H   0  0  0  0  0  0
   35.7036    5.2102   17.5207 H   0  0  0  0  0  0
   41.3865   12.7148   13.3125 H   0  0  0  0  0  0
   40.1558   12.9073   14.6195 H   0  0  0  0  0  0
   42.1492   18.3917   14.4465 H   0  0  0  0  0  0
   40.0518   17.5177   13.4091 H   0  0  0  0  0  0
   39.6111   15.0598   13.3641 H   0  0  0  0  0  0
   43.3693   14.3501   15.3889 H   0  0  0  0  0  0
   43.8094   16.8069   15.4334 H   0  0  0  0  0  0
  1  2  2  0  0  0
  1  6  1  0  0  0
  1 21  1  0  0  0
  2  3  1  0  0  0
  2 29  1  0  0  0
  3  4  2  0  0  0
  3 30  1  0  0  0
  4  5  1  0  0  0
  4 31  1  0  0  0
  5  6  2  0  0  0
  5  7  1  0  0  0
  6 32  1  0  0  0
  7 11  2  0  0  0
  7  8  1  0  0  0
  8  9  1  0  0  0
  9 10  2  0  0  0
  9 13  1  0  0  0
 10 16  1  0  0  0
 10 11  1  0  0  0
 11 12  1  0  0  0
 13 14  2  0  0  0
 13 15  1  0  0  0
 16 17  1  0  0  0
 17 18  1  0  0  0
 17 33  1  0  0  0
 17 34  1  0  0  0
 18 19  1  0  0  0
 18 20  2  0  0  0
 21 22  1  0  0  0
 22 26  1  0  0  0
 22 35  1  0  0  0
 22 36  1  0  0  0
 23 28  2  0  0  0
 23 24  1  0  0  0
 23 37  1  0  0  0
 24 25  2  0  0  0
 24 38  1  0  0  0
 25 26  1  0  0  0
 25 39  1  0  0  0
 26 27  2  0  0  0
 27 28  1  0  0  0
 27 40  1  0  0  0
 28 41  1  0  0  0
M  CHG  2  15  -1  19  -1
M  END
> <s_m_entry_id>
2

> <s_m_entry_id>
1347

> <MODEL>
1

> <REMARK>
 VINA RESULT:    -7.447      0.000      0.000
 INTER + INTRA:         -11.938
 INTER:                 -10.930
 INTRA:                  -1.008
 UNBOUND:                -1.008
  Name = /scratch/kmzp800/tmpzeiqq43b/tmpilzzk0_n.pdb
  8 active torsions:
  status: ('A' for Active; 'I' for Inactive)
    1  A    between atoms: C4_4  and  C5_5
    2  A    between atoms: C5_5  and  O1_6
    3  A    between atoms: O1_6  and  C6_7
    4  A    between atoms: C10_11  and  C11_12
    5  A    between atoms: C12_14  and  C13_15
    6  A    between atoms: C14_18  and  O4_19
    7  A    between atoms: O4_19  and  C15_20
    8  A    between atoms: C15_20  and  C16_21
                            x       y       z     vdW  Elec       q    Type
                         _______ _______ _______ _____ _____    ______ ____

> <TORSDO>
F 8

> <grid_id>
ptp1b-prepared

> <grid_path>
ptp1b_vina.pdbqt

> <grid_filename>
ptp1b_vina.pdbqt

> <docking_score>
-7.447

> <compound_name>
lig_23473

> <index_string>
1:0:0

> <s_m_Source_Path>
/projects/mai/users/kmzp800_harry/pmx_colab/docking_jobs/ptp1b/vina_prep

> <s_m_Source_File>
ptp1b_confs_vina_naive.sdf

> <i_m_Source_File_Index>
2

> <s_m_Source_Path>
/projects/mai/users/kmzp800_harry/pmx_colab/docking_jobs/ptp1b/vina_prep

> <s_m_Source_File>
ptp1b_vina_naive_confs.sdf

> <i_m_Source_File_Index>
2

$$$$
lig_23472
                    3D
 Schrodinger Suite 2021-4.
 42 44  0  0  1  0            999 V2000
   41.7260    8.3030   17.4050 C   0  0  0  0  0  0
   40.7840    7.6290   16.6210 C   0  0  0  0  0  0
   39.9180    8.3360   15.7770 C   0  0  0  0  0  0
   40.0050    9.7350   15.7490 C   0  0  0  0  0  0
   40.9470   10.4210   16.5260 C   0  0  0  0  0  0
   41.8080    9.6970   17.3550 C   0  0  0  0  0  0
   38.9070    7.6540   14.9330 C   0  0  0  0  0  0
   37.2610    7.6460   15.2960 S   0  0  0  0  0  0
   36.7590    6.7590   13.9680 C   0  0  0  0  0  0
   37.8760    6.4370   13.1990 C   0  0  0  0  0  0
   39.0920    6.9510   13.7280 C   0  0  0  0  0  0
   40.7870    6.8370   12.8230 Br  0  0  0  0  0  0
   35.3620    6.3900   13.6900 C   0  0  0  0  0  0
   34.7920    6.8180   12.6520 O   0  0  0  0  0  0
   34.6580    5.5700   14.5630 O   0  5  0  0  0  0
   37.7350    5.6870   12.0220 O   0  0  0  0  0  0
   37.4670    4.2940   11.9790 C   0  0  0  0  0  0
   36.4050    4.0250   10.9750 C   0  0  0  0  0  0
   36.6790    4.0460    9.7470 O   0  0  0  0  0  0
   35.1020    3.7900   11.3900 O   0  5  0  0  0  0
   41.0510   11.8460   16.4820 N   0  0  0  0  0  0
   42.5420   12.6940   16.2220 S   0  0  0  0  0  0
   43.0670   13.1790   17.5440 O   0  0  0  0  0  0
   43.5460   11.7600   15.6090 O   0  0  0  0  0  0
   42.2860   14.0500   15.1360 C   0  0  0  0  0  0
   41.1780   14.0690   14.2800 C   0  0  0  0  0  0
   40.9950   15.1350   13.3950 C   0  0  0  0  0  0
   41.9190   16.1830   13.3620 C   0  0  0  0  0  0
   41.7430   17.2150   12.5030 F   0  0  0  0  0  0
   43.0260   16.1660   14.2160 C   0  0  0  0  0  0
   43.2100   15.1000   15.1020 C   0  0  0  0  0  0
   42.4024    7.7356   18.0611 H   0  0  0  0  0  0
   40.7225    6.5317   16.6677 H   0  0  0  0  0  0
   39.3200   10.3051   15.1042 H   0  0  0  0  0  0
   42.5518   10.2255   17.9694 H   0  0  0  0  0  0
   38.3826    3.7529   11.6983 H   0  0  0  0  0  0
   37.1298    3.9546   12.9695 H   0  0  0  0  0  0
   40.1927   12.4004   16.6119 H   0  0  0  0  0  0
   40.4508   13.2440   14.3042 H   0  0  0  0  0  0
   40.1234   15.1492   12.7241 H   0  0  0  0  0  0
   43.7525   16.9916   14.1908 H   0  0  0  0  0  0
   44.0818   15.0869   15.7727 H   0  0  0  0  0  0
  1  2  2  0  0  0
  1  6  1  0  0  0
  1 32  1  0  0  0
  2  3  1  0  0  0
  2 33  1  0  0  0
  3  4  2  0  0  0
  3  7  1  0  0  0
  4  5  1  0  0  0
  4 34  1  0  0  0
  5  6  2  0  0  0
  5 21  1  0  0  0
  6 35  1  0  0  0
  7  8  1  0  0  0
  7 11  2  0  0  0
  8  9  1  0  0  0
  9 10  2  0  0  0
  9 13  1  0  0  0
 10 11  1  0  0  0
 10 16  1  0  0  0
 11 12  1  0  0  0
 13 15  1  0  0  0
 13 14  2  0  0  0
 16 17  1  0  0  0
 17 18  1  0  0  0
 17 36  1  0  0  0
 17 37  1  0  0  0
 18 20  1  0  0  0
 18 19  2  0  0  0
 21 22  1  0  0  0
 21 38  1  0  0  0
 22 23  2  0  0  0
 22 24  2  0  0  0
 22 25  1  0  0  0
 25 26  2  0  0  0
 25 31  1  0  0  0
 26 27  1  0  0  0
 26 39  1  0  0  0
 27 28  2  0  0  0
 27 40  1  0  0  0
 28 30  1  0  0  0
 28 29  1  0  0  0
 30 31  2  0  0  0
 30 41  1  0  0  0
 31 42  1  0  0  0
M  CHG  2  15  -1  20  -1
M  END
> <s_m_entry_id>
3

> <s_m_entry_id>
1348

> <MODEL>
1

> <REMARK>
 VINA RESULT:    -5.423      0.000      0.000
 INTER + INTRA:          -8.830
 INTER:                  -7.959
 INTRA:                  -0.871
 UNBOUND:                -0.871
  Name = /scratch/kmzp800/tmp5rvzmtsq/tmppv4qdw0a.pdb
  8 active torsions:
  status: ('A' for Active; 'I' for Inactive)
    1  A    between atoms: C3_3  and  C4_4
    2  A    between atoms: C5_6  and  C6_7
    3  A    between atoms: C7_10  and  O3_11
    4  A    between atoms: O3_11  and  C8_12
    5  A    between atoms: C8_12  and  C9_13
    6  A    between atoms: C12_19  and  N1_20
    7  A    between atoms: N1_20  and  S2_21
    8  A    between atoms: S2_21  and  C13_24
                            x       y       z     vdW  Elec       q    Type
                         _______ _______ _______ _____ _____    ______ ____

> <TORSDO>
F 8

> <grid_id>
ptp1b-prepared

> <grid_path>
ptp1b_vina.pdbqt

> <grid_filename>
ptp1b_vina.pdbqt

> <docking_score>
-5.423

> <compound_name>
lig_23472

> <index_string>
2:0:0

> <s_m_Source_Path>
/projects/mai/users/kmzp800_harry/pmx_colab/docking_jobs/ptp1b/vina_prep

> <s_m_Source_File>
ptp1b_confs_vina_naive.sdf

> <i_m_Source_File_Index>
3

> <s_m_Source_Path>
/projects/mai/users/kmzp800_harry/pmx_colab/docking_jobs/ptp1b/vina_prep

> <s_m_Source_File>
ptp1b_vina_naive_confs.sdf

> <i_m_Source_File_Index>
3

$$$$
lig_23483
                    3D
 Schrodinger Suite 2021-4.
 57 60  0  0  1  0            999 V2000
   39.6900   10.2390   17.2960 C   0  0  0  0  0  0
   39.8570    9.2330   16.3410 C   0  0  0  0  0  0
   40.6600    9.4580   15.2200 C   0  0  0  0  0  0
   41.2960   10.6890   15.0510 C   0  0  0  0  0  0
   41.1360   11.7150   15.9960 C   0  0  0  0  0  0
   40.3320   11.4720   17.1180 C   0  0  0  0  0  0
   41.8410   13.0060   15.8120 C   0  0  0  0  0  0
   42.9600   13.6170   16.9140 S   0  0  0  0  0  0
   43.3160   15.0290   16.0880 C   0  0  0  0  0  0
   42.5540   15.0650   14.9230 C   0  0  0  0  0  0
   41.7340   13.9210   14.7490 C   0  0  0  0  0  0
   40.7230   13.5810   13.1450 Br  0  0  0  0  0  0
   44.2670   16.0500   16.5570 C   0  0  0  0  0  0
   44.8890   16.7740   15.7360 O   0  0  0  0  0  0
   44.4830   16.2230   17.9180 O   0  5  0  0  0  0
   42.6430   16.1500   14.0370 O   0  0  0  0  0  0
   41.8080   17.2990   14.0900 C   0  0  0  0  0  0
   40.7230   17.1910   13.0740 C   0  0  0  0  0  0
   39.5270   17.0600   13.4410 O   0  5  0  0  0  0
   41.0280   17.2720   11.7220 O   0  0  0  0  0  0
   38.8640    9.9940   18.4380 N   0  0  0  0  0  0
   41.4950   10.2160   21.7880 N   0  0  2  0  0  0
   41.1120    8.8960   21.2670 C   0  0  0  0  0  0
   40.5410    8.9550   19.8510 C   0  0  0  0  0  0
   39.3760    9.9270   19.8000 C   0  0  0  0  0  0
   39.8590   11.3010   20.2400 C   0  0  0  0  0  0
   40.4330   11.2250   21.6540 C   0  0  0  0  0  0
   43.0110   10.7690   21.1230 S   0  0  0  0  0  0
   44.0550   10.7550   22.2050 O   0  0  0  0  0  0
   42.8490   12.1880   20.6510 O   0  0  0  0  0  0
   44.4840    8.2260   17.6370 C   0  0  0  0  0  0
   44.8060    7.8670   18.9490 C   0  0  0  0  0  0
   44.3550    8.6480   20.0170 C   0  0  0  0  0  0
   43.5770    9.7860   19.7780 C   0  0  0  0  0  0
   43.2640   10.1480   18.4620 C   0  0  0  0  0  0
   43.7140    9.3670   17.3930 C   0  0  0  0  0  0
   39.3557    8.2627   16.4718 H   0  0  0  0  0  0
   40.7911    8.6642   14.4698 H   0  0  0  0  0  0
   41.9296   10.8571   14.1676 H   0  0  0  0  0  0
   40.2027   12.2626   17.8718 H   0  0  0  0  0  0
   41.3614   17.3783   15.0921 H   0  0  0  0  0  0
   42.4123   18.1933   13.8777 H   0  0  0  0  0  0
   37.8539    9.8578   18.2893 H   0  0  0  0  0  0
   42.0027    8.2505   21.2590 H   0  0  0  0  0  0
   40.3232    8.4998   21.9233 H   0  0  0  0  0  0
   41.3251    9.2897   19.1559 H   0  0  0  0  0  0
   40.1883    7.9539   19.5623 H   0  0  0  0  0  0
   38.5725    9.5887   20.4708 H   0  0  0  0  0  0
   40.6393   11.6515   19.5484 H   0  0  0  0  0  0
   39.0110   12.0016   20.2317 H   0  0  0  0  0  0
   39.6193   10.9725   22.3498 H   0  0  0  0  0  0
   40.8782   12.2046   21.8823 H   0  0  0  0  0  0
   44.8366    7.6105   16.7963 H   0  0  0  0  0  0
   45.4139    6.9705   19.1409 H   0  0  0  0  0  0
   44.6126    8.3669   21.0488 H   0  0  0  0  0  0
   42.6628   11.0487   18.2688 H   0  0  0  0  0  0
   43.4622    9.6503   16.3604 H   0  0  0  0  0  0
  1 21  1  0  0  0
  1  2  2  0  0  0
  1  6  1  0  0  0
  2  3  1  0  0  0
  2 37  1  0  0  0
  3  4  2  0  0  0
  3 38  1  0  0  0
  4  5  1  0  0  0
  4 39  1  0  0  0
  5  6  2  0  0  0
  5  7  1  0  0  0
  6 40  1  0  0  0
  7  8  1  0  0  0
  7 11  2  0  0  0
  8  9  1  0  0  0
  9 13  1  0  0  0
  9 10  2  0  0  0
 10 11  1  0  0  0
 10 16  1  0  0  0
 11 12  1  0  0  0
 13 15  1  0  0  0
 13 14  2  0  0  0
 16 17  1  0  0  0
 17 18  1  0  0  0
 17 41  1  0  0  0
 17 42  1  0  0  0
 18 19  1  0  0  0
 18 20  2  0  0  0
 21 25  1  0  0  0
 21 43  1  0  0  0
 22 23  1  0  0  0
 22 27  1  0  0  0
 22 28  1  0  0  0
 23 24  1  0  0  0
 23 44  1  0  0  0
 23 45  1  0  0  0
 24 25  1  0  0  0
 24 46  1  0  0  0
 24 47  1  0  0  0
 25 26  1  0  0  0
 25 48  1  0  0  0
 26 27  1  0  0  0
 26 49  1  0  0  0
 26 50  1  0  0  0
 27 51  1  0  0  0
 27 52  1  0  0  0
 28 29  2  0  0  0
 28 30  2  0  0  0
 28 34  1  0  0  0
 31 32  2  0  0  0
 31 36  1  0  0  0
 31 53  1  0  0  0
 32 33  1  0  0  0
 32 54  1  0  0  0
 33 34  2  0  0  0
 33 55  1  0  0  0
 34 35  1  0  0  0
 35 36  2  0  0  0
 35 56  1  0  0  0
 36 57  1  0  0  0
M  CHG  2  15  -1  19  -1
M  END
> <s_m_entry_id>
4

> <s_m_entry_id>
1349

> <MODEL>
1

> <REMARK>
 VINA RESULT:    -7.600      0.000      0.000
 INTER + INTRA:         -13.037
 INTER:                 -11.599
 INTRA:                  -1.437
 UNBOUND:                -1.437
  Name = /scratch/kmzp800/tmpb8zwws8_/tmp9hfqpph3.pdb
  9 active torsions:
  status: ('A' for Active; 'I' for Inactive)
    1  A    between atoms: C4_4  and  S1_5
    2  A    between atoms: S1_5  and  N1_8
    3  A    between atoms: C7_11  and  N2_12
    4  A    between atoms: N2_12  and  C8_13
    5  A    between atoms: C12_17  and  C13_18
    6  A    between atoms: C14_20  and  C15_21
    7  A    between atoms: C16_24  and  O5_25
    8  A    between atoms: O5_25  and  C17_26
    9  A    between atoms: C17_26  and  C18_27
                            x       y       z     vdW  Elec       q    Type
                         _______ _______ _______ _____ _____    ______ ____

> <TORSDO>
F 9

> <grid_id>
ptp1b-prepared

> <grid_path>
ptp1b_vina.pdbqt

> <grid_filename>
ptp1b_vina.pdbqt

> <docking_score>
-7.6

> <compound_name>
lig_23483

> <index_string>
3:0:0

> <s_m_Source_Path>
/projects/mai/users/kmzp800_harry/pmx_colab/docking_jobs/ptp1b/vina_prep

> <s_m_Source_File>
ptp1b_confs_vina_naive.sdf

> <i_m_Source_File_Index>
4

> <s_m_Source_Path>
/projects/mai/users/kmzp800_harry/pmx_colab/docking_jobs/ptp1b/vina_prep

> <s_m_Source_File>
ptp1b_vina_naive_confs.sdf

> <i_m_Source_File_Index>
4

$$$$
lig_23477
                    3D
 Schrodinger Suite 2021-4.
 43 45  0  0  1  0            999 V2000
   42.3880    8.9390   16.9060 C   0  0  0  0  0  0
   42.8080   10.2660   16.7930 C   0  0  0  0  0  0
   42.0410   11.2020   16.0870 C   0  0  0  0  0  0
   40.8330   10.7860   15.5090 C   0  0  0  0  0  0
   40.4020    9.4550   15.6200 C   0  0  0  0  0  0
   41.1860    8.5340   16.3190 C   0  0  0  0  0  0
   42.4530   12.6210   15.9760 C   0  0  0  0  0  0
   43.4030   13.4040   17.1260 S   0  0  0  0  0  0
   43.4500   14.9000   16.3710 C   0  0  0  0  0  0
   42.7240   14.8200   15.1860 C   0  0  0  0  0  0
   42.1430   13.5460   14.9620 C   0  0  0  0  0  0
   40.9040   13.1800   13.5370 Br  0  0  0  0  0  0
   44.1650   16.0770   16.8900 C   0  0  0  0  0  0
   44.0500   16.4010   18.1010 O   0  5  0  0  0  0
   44.9690   16.8410   16.0530 O   0  0  0  0  0  0
   42.5980   15.9340   14.3410 O   0  0  0  0  0  0
   41.5880   16.9260   14.4700 C   0  0  0  0  0  0
   40.9770   17.2120   13.1410 C   0  0  0  0  0  0
   41.7100   17.3420   12.1280 O   0  0  0  0  0  0
   39.5970   17.2910   13.0130 O   0  5  0  0  0  0
   39.1740    9.0210   15.0280 N   0  0  0  0  0  0
   38.8710    7.6270   14.7370 C   0  0  0  0  0  0
   37.3600    7.4410   14.6390 C   0  0  0  0  0  0
   37.0650    6.0300   14.1270 C   0  0  0  0  0  0
   37.6390    5.8510   12.8550 O   0  0  0  0  0  0
   39.0340    5.8140   13.0400 C   0  0  0  0  0  0
   39.5440    7.2010   13.4320 C   0  0  0  0  0  0
   43.0032    8.2124   17.4570 H   0  0  0  0  0  0
   43.7515   10.5799   17.2635 H   0  0  0  0  0  0
   40.2149   11.5126   14.9613 H   0  0  0  0  0  0
   40.8567    7.4882   16.4076 H   0  0  0  0  0  0
   40.8094   16.5649   15.1581 H   0  0  0  0  0  0
   42.0384   17.8486   14.8648 H   0  0  0  0  0  0
   38.4666    9.7326   14.7953 H   0  0  0  0  0  0
   39.2586    6.9960   15.5504 H   0  0  0  0  0  0
   36.9065    7.5755   15.6321 H   0  0  0  0  0  0
   36.9379    8.1839   13.9463 H   0  0  0  0  0  0
   37.4887    5.2930   14.8251 H   0  0  0  0  0  0
   35.9761    5.8918   14.0550 H   0  0  0  0  0  0
   39.2772    5.0970   13.8380 H   0  0  0  0  0  0
   39.5157    5.5031   12.1012 H   0  0  0  0  0  0
   39.2994    7.9221   12.6381 H   0  0  0  0  0  0
   40.6351    7.1715   13.5684 H   0  0  0  0  0  0
  1  2  2  0  0  0
  1  6  1  0  0  0
  1 28  1  0  0  0
  2  3  1  0  0  0
  2 29  1  0  0  0
  3  4  2  0  0  0
  3  7  1  0  0  0
  4  5  1  0  0  0
  4 30  1  0  0  0
  5  6  2  0  0  0
  5 21  1  0  0  0
  6 31  1  0  0  0
  7  8  1  0  0  0
  7 11  2  0  0  0
  8  9  1  0  0  0
  9 13  1  0  0  0
  9 10  2  0  0  0
 10 11  1  0  0  0
 10 16  1  0  0  0
 11 12  1  0  0  0
 13 14  1  0  0  0
 13 15  2  0  0  0
 16 17  1  0  0  0
 17 18  1  0  0  0
 17 32  1  0  0  0
 17 33  1  0  0  0
 18 19  2  0  0  0
 18 20  1  0  0  0
 21 22  1  0  0  0
 21 34  1  0  0  0
 22 23  1  0  0  0
 22 27  1  0  0  0
 22 35  1  0  0  0
 23 24  1  0  0  0
 23 36  1  0  0  0
 23 37  1  0  0  0
 24 25  1  0  0  0
 24 38  1  0  0  0
 24 39  1  0  0  0
 25 26  1  0  0  0
 26 27  1  0  0  0
 26 40  1  0  0  0
 26 41  1  0  0  0
 27 42  1  0  0  0
 27 43  1  0  0  0
M  CHG  2  14  -1  20  -1
M  END
> <s_m_entry_id>
5

> <s_m_entry_id>
1350

> <MODEL>
1

> <REMARK>
 VINA RESULT:    -7.421      0.000      0.000
 INTER + INTRA:         -10.752
 INTER:                 -10.458
 INTRA:                  -0.294
 UNBOUND:                -0.294
  Name = /scratch/kmzp800/tmp19c49vep/tmpg4heyu19.pdb
  7 active torsions:
  status: ('A' for Active; 'I' for Inactive)
    1  A    between atoms: C3_3  and  C4_4
    2  A    between atoms: C5_6  and  C6_7
    3  A    between atoms: C7_10  and  O3_11
    4  A    between atoms: O3_11  and  C8_12
    5  A    between atoms: C8_12  and  C9_13
    6  A    between atoms: C12_19  and  N1_20
    7  A    between atoms: N1_20  and  C13_21
                            x       y       z     vdW  Elec       q    Type
                         _______ _______ _______ _____ _____    ______ ____

> <TORSDO>
F 7

> <grid_id>
ptp1b-prepared

> <grid_path>
ptp1b_vina.pdbqt

> <grid_filename>
ptp1b_vina.pdbqt

> <docking_score>
-7.421

> <compound_name>
lig_23477

> <index_string>
4:0:0

> <s_m_Source_Path>
/projects/mai/users/kmzp800_harry/pmx_colab/docking_jobs/ptp1b/vina_prep

> <s_m_Source_File>
ptp1b_confs_vina_naive.sdf

> <i_m_Source_File_Index>
5

> <s_m_Source_Path>
/projects/mai/users/kmzp800_harry/pmx_colab/docking_jobs/ptp1b/vina_prep

> <s_m_Source_File>
ptp1b_vina_naive_confs.sdf

> <i_m_Source_File_Index>
5

$$$$
lig_23482
                    3D
 Schrodinger Suite 2021-4.
 50 52  0  0  1  0            999 V2000
   42.7840    9.3040   16.8110 C   0  0  0  0  0  0
   43.0670   10.6460   16.5480 C   0  0  0  0  0  0
   42.0770   11.5030   16.0410 C   0  0  0  0  0  0
   40.7990   10.9830   15.8030 C   0  0  0  0  0  0
   40.5030    9.6380   16.0670 C   0  0  0  0  0  0
   41.5020    8.8010   16.5700 C   0  0  0  0  0  0
   42.4020   12.9240   15.7690 C   0  0  0  0  0  0
   43.4010   13.8620   16.7500 S   0  0  0  0  0  0
   43.3150   15.2820   15.8590 C   0  0  0  0  0  0
   42.4680   15.0490   14.7670 C   0  0  0  0  0  0
   41.9770   13.7340   14.7020 C   0  0  0  0  0  0
   40.7910   13.1990   13.2910 Br  0  0  0  0  0  0
   44.1190   16.4780   16.1560 C   0  0  0  0  0  0
   44.8440   16.5040   17.1850 O   0  5  0  0  0  0
   44.1440   17.5570   15.2830 O   0  0  0  0  0  0
   42.0840   16.0070   13.8180 O   0  0  0  0  0  0
   40.9670   16.8710   13.9850 C   0  0  0  0  0  0
   40.4250   17.2770   12.6580 C   0  0  0  0  0  0
   41.1550   17.2180   11.6350 O   0  0  0  0  0  0
   39.1020   17.6810   12.5430 O   0  5  0  0  0  0
   39.1980    9.1050   15.8240 N   0  0  0  0  0  0
   38.9630    7.7680   15.3000 C   0  0  0  0  0  0
   38.6190    7.8420   13.8200 C   0  0  0  0  0  0
   38.3480    6.4380   13.2810 C   0  0  0  0  0  0
   37.3010    5.7300   14.0340 N   0  0  1  0  0  0
   37.5350    5.7320   15.4850 C   0  0  0  0  0  0
   37.8020    7.1300   16.0430 C   0  0  0  0  0  0
   35.7100    6.3210   13.6360 S   0  0  0  0  0  0
   35.7690    7.8130   13.4560 O   0  0  0  0  0  0
   34.7700    6.0070   14.7670 O   0  0  0  0  0  0
   35.0670    5.5930   12.1430 C   0  0  0  0  0  0
   43.5691    8.6433   17.2074 H   0  0  0  0  0  0
   44.0773   11.0363   16.7403 H   0  0  0  0  0  0
   40.0137   11.6408   15.4021 H   0  0  0  0  0  0
   41.2794    7.7438   16.7769 H   0  0  0  0  0  0
   40.1838   16.3463   14.5518 H   0  0  0  0  0  0
   41.2885   17.7703   14.5308 H   0  0  0  0  0  0
   38.3820    9.6986   16.0307 H   0  0  0  0  0  0
   39.8739    7.1665   15.4358 H   0  0  0  0  0  0
   37.7225    8.4647   13.6841 H   0  0  0  0  0  0
   39.4641    8.2846   13.2723 H   0  0  0  0  0  0
   38.0311    6.5199   12.2308 H   0  0  0  0  0  0
   39.2778    5.8592   13.3829 H   0  0  0  0  0  0
   36.6463    5.3187   15.9843 H   0  0  0  0  0  0
   38.4317    5.1240   15.6754 H   0  0  0  0  0  0
   38.0497    7.0552   17.1121 H   0  0  0  0  0  0
   36.9030    7.7505   15.9131 H   0  0  0  0  0  0
   34.3592    4.7916   12.4012 H   0  0  0  0  0  0
   34.5492    6.3635   11.5529 H   0  0  0  0  0  0
   35.8955    5.1743   11.5529 H   0  0  0  0  0  0
  1  2  2  0  0  0
  1  6  1  0  0  0
  1 32  1  0  0  0
  2  3  1  0  0  0
  2 33  1  0  0  0
  3  4  2  0  0  0
  3  7  1  0  0  0
  4  5  1  0  0  0
  4 34  1  0  0  0
  5  6  2  0  0  0
  5 21  1  0  0  0
  6 35  1  0  0  0
  7  8  1  0  0  0
  7 11  2  0  0  0
  8  9  1  0  0  0
  9 13  1  0  0  0
  9 10  2  0  0  0
 10 11  1  0  0  0
 10 16  1  0  0  0
 11 12  1  0  0  0
 13 14  1  0  0  0
 13 15  2  0  0  0
 16 17  1  0  0  0
 17 18  1  0  0  0
 17 36  1  0  0  0
 17 37  1  0  0  0
 18 19  2  0  0  0
 18 20  1  0  0  0
 21 22  1  0  0  0
 21 38  1  0  0  0
 22 27  1  0  0  0
 22 23  1  0  0  0
 22 39  1  0  0  0
 23 24  1  0  0  0
 23 40  1  0  0  0
 23 41  1  0  0  0
 24 25  1  0  0  0
 24 42  1  0  0  0
 24 43  1  0  0  0
 25 26  1  0  0  0
 25 28  1  0  0  0
 26 27  1  0  0  0
 26 44  1  0  0  0
 26 45  1  0  0  0
 27 46  1  0  0  0
 27 47  1  0  0  0
 28 30  2  0  0  0
 28 29  2  0  0  0
 28 31  1  0  0  0
 31 48  1  0  0  0
 31 49  1  0  0  0
 31 50  1  0  0  0
M  CHG  2  14  -1  20  -1
M  END
> <s_m_entry_id>
6

> <s_m_entry_id>
1351

> <MODEL>
1

> <REMARK>
 VINA RESULT:    -8.230      0.000      0.000
 INTER + INTRA:         -12.279
 INTER:                 -12.078
 INTRA:                  -0.200
 UNBOUND:                -0.200
  Name = /scratch/kmzp800/tmpy2_17yk0/tmpcrg3txf2.pdb
  9 active torsions:
  status: ('A' for Active; 'I' for Inactive)
    1  A    between atoms: C3_3  and  C4_4
    2  A    between atoms: C5_6  and  C6_7
    3  A    between atoms: C7_10  and  O3_11
    4  A    between atoms: O3_11  and  C8_12
    5  A    between atoms: C8_12  and  C9_13
    6  A    between atoms: C12_19  and  N1_20
    7  A    between atoms: N1_20  and  C13_21
    8  A    between atoms: N2_24  and  S2_25
    9  A    between atoms: S2_25  and  C16_28
                            x       y       z     vdW  Elec       q    Type
                         _______ _______ _______ _____ _____    ______ ____

> <TORSDO>
F 8

> <grid_id>
ptp1b-prepared

> <grid_path>
ptp1b_vina.pdbqt

> <grid_filename>
ptp1b_vina.pdbqt

> <docking_score>
-8.23

> <compound_name>
lig_23482

> <index_string>
5:0:0

> <s_m_Source_Path>
/projects/mai/users/kmzp800_harry/pmx_colab/docking_jobs/ptp1b/vina_prep

> <s_m_Source_File>
ptp1b_confs_vina_naive.sdf

> <i_m_Source_File_Index>
6

> <s_m_Source_Path>
/projects/mai/users/kmzp800_harry/pmx_colab/docking_jobs/ptp1b/vina_prep

> <s_m_Source_File>
ptp1b_vina_naive_confs.sdf

> <i_m_Source_File_Index>
6

$$$$
lig_23476
                    3D
 Schrodinger Suite 2021-4.
 48 50  0  0  1  0            999 V2000
   42.3350    9.0500   16.8930 C   0  0  0  0  0  0
   42.7070   10.3910   16.7740 C   0  0  0  0  0  0
   41.9310   11.2870   16.0220 C   0  0  0  0  0  0
   40.7820   10.8040   15.3810 C   0  0  0  0  0  0
   40.4010    9.4590   15.4940 C   0  0  0  0  0  0
   41.1840    8.5860   16.2530 C   0  0  0  0  0  0
   42.3650   12.7000   15.8870 C   0  0  0  0  0  0
   43.3710   13.4650   17.0020 S   0  0  0  0  0  0
   43.4330   14.9540   16.2380 C   0  0  0  0  0  0
   42.6670   14.8920   15.0760 C   0  0  0  0  0  0
   42.0480   13.6270   14.8760 C   0  0  0  0  0  0
   40.7880   13.2620   13.4670 Br  0  0  0  0  0  0
   44.1900   16.1150   16.7330 C   0  0  0  0  0  0
   44.1020   16.4560   17.9410 O   0  5  0  0  0  0
   45.0070   16.8440   15.8790 O   0  0  0  0  0  0
   42.5520   16.0110   14.2400 O   0  0  0  0  0  0
   41.5350   16.9950   14.3420 C   0  0  0  0  0  0
   40.9750   17.2740   12.9940 C   0  0  0  0  0  0
   41.7340   17.3100   11.9910 O   0  0  0  0  0  0
   39.6200   17.5400   12.8470 O   0  5  0  0  0  0
   39.2260    8.9550   14.8440 N   0  0  0  0  0  0
   38.9770    7.5530   14.5190 C   0  0  0  0  0  0
   39.7090    7.1550   13.2280 C   0  0  0  0  0  0
   39.2640    5.8180   12.6300 C   0  0  0  0  0  0
   39.2710    4.6610   13.6350 C   0  0  0  0  0  0
   38.2940    4.8340   14.8090 C   0  0  0  0  0  0
   37.1160    5.7530   14.4780 C   0  0  0  0  0  0
   37.4710    7.2480   14.5400 C   0  0  0  0  0  0
   42.9485    8.3597   17.4906 H   0  0  0  0  0  0
   43.6184   10.7490   17.2752 H   0  0  0  0  0  0
   40.1689   11.4912   14.7794 H   0  0  0  0  0  0
   40.8928    7.5294   16.3468 H   0  0  0  0  0  0
   40.7352   16.6279   15.0020 H   0  0  0  0  0  0
   41.9612   17.9193   14.7592 H   0  0  0  0  0  0
   38.4988    9.6371   14.5854 H   0  0  0  0  0  0
   39.4064    6.9054   15.2976 H   0  0  0  0  0  0
   39.5349    7.9411   12.4785 H   0  0  0  0  0  0
   40.7702    7.0401   13.4938 H   0  0  0  0  0  0
   38.2415    5.9344   12.2416 H   0  0  0  0  0  0
   39.9862    5.5626   11.8406 H   0  0  0  0  0  0
   39.0048    3.7380   13.0990 H   0  0  0  0  0  0
   40.2811    4.6284   14.0693 H   0  0  0  0  0  0
   37.8998    3.8449   15.0853 H   0  0  0  0  0  0
   38.8520    5.2998   15.6347 H   0  0  0  0  0  0
   36.7666    5.5195   13.4614 H   0  0  0  0  0  0
   36.3400    5.5720   15.2364 H   0  0  0  0  0  0
   37.0508    7.6615   15.4687 H   0  0  0  0  0  0
   37.0494    7.7048   13.6325 H   0  0  0  0  0  0
  1  2  2  0  0  0
  1  6  1  0  0  0
  1 29  1  0  0  0
  2  3  1  0  0  0
  2 30  1  0  0  0
  3  4  2  0  0  0
  3  7  1  0  0  0
  4  5  1  0  0  0
  4 31  1  0  0  0
  5  6  2  0  0  0
  5 21  1  0  0  0
  6 32  1  0  0  0
  7  8  1  0  0  0
  7 11  2  0  0  0
  8  9  1  0  0  0
  9 13  1  0  0  0
  9 10  2  0  0  0
 10 11  1  0  0  0
 10 16  1  0  0  0
 11 12  1  0  0  0
 13 14  1  0  0  0
 13 15  2  0  0  0
 16 17  1  0  0  0
 17 18  1  0  0  0
 17 33  1  0  0  0
 17 34  1  0  0  0
 18 19  2  0  0  0
 18 20  1  0  0  0
 21 22  1  0  0  0
 21 35  1  0  0  0
 22 28  1  0  0  0
 22 23  1  0  0  0
 22 36  1  0  0  0
 23 24  1  0  0  0
 23 37  1  0  0  0
 23 38  1  0  0  0
 24 25  1  0  0  0
 24 39  1  0  0  0
 24 40  1  0  0  0
 25 26  1  0  0  0
 25 41  1  0  0  0
 25 42  1  0  0  0
 26 27  1  0  0  0
 26 43  1  0  0  0
 26 44  1  0  0  0
 27 28  1  0  0  0
 27 45  1  0  0  0
 27 46  1  0  0  0
 28 47  1  0  0  0
 28 48  1  0  0  0
M  CHG  2  14  -1  20  -1
M  END
> <s_m_entry_id>
7

> <s_m_entry_id>
1352

> <MODEL>
1

> <REMARK>
 VINA RESULT:    -7.667      0.000      0.000
 INTER + INTRA:         -11.201
 INTER:                 -10.804
 INTRA:                  -0.397
 UNBOUND:                -0.397
  Name = /scratch/kmzp800/tmp3oi0ufpr/tmp5tjrireo.pdb
  7 active torsions:
  status: ('A' for Active; 'I' for Inactive)
    1  A    between atoms: C3_3  and  C4_4
    2  A    between atoms: C5_6  and  C6_7
    3  A    between atoms: C7_10  and  O3_11
    4  A    between atoms: O3_11  and  C8_12
    5  A    between atoms: C8_12  and  C9_13
    6  A    between atoms: C12_19  and  N1_20
    7  A    between atoms: N1_20  and  C13_21
                            x       y       z     vdW  Elec       q    Type
                         _______ _______ _______ _____ _____    ______ ____

> <TORSDO>
F 7

> <grid_id>
ptp1b-prepared

> <grid_path>
ptp1b_vina.pdbqt

> <grid_filename>
ptp1b_vina.pdbqt

> <docking_score>
-7.667

> <compound_name>
lig_23476

> <index_string>
6:0:0

> <s_m_Source_Path>
/projects/mai/users/kmzp800_harry/pmx_colab/docking_jobs/ptp1b/vina_prep

> <s_m_Source_File>
ptp1b_confs_vina_naive.sdf

> <i_m_Source_File_Index>
7

> <s_m_Source_Path>
/projects/mai/users/kmzp800_harry/pmx_colab/docking_jobs/ptp1b/vina_prep

> <s_m_Source_File>
ptp1b_vina_naive_confs.sdf

> <i_m_Source_File_Index>
7

$$$$
lig_23479
                    3D
 Schrodinger Suite 2021-4.
 49 51  0  0  1  0            999 V2000
   42.3650    8.9300   16.8040 C   0  0  0  0  0  0
   41.3530    8.0000   16.5490 C   0  0  0  0  0  0
   40.1280    8.4080   16.0030 C   0  0  0  0  0  0
   39.9450    9.7650   15.7060 C   0  0  0  0  0  0
   40.9540   10.7070   15.9560 C   0  0  0  0  0  0
   42.1630   10.2820   16.5090 C   0  0  0  0  0  0
   39.0380    7.4480   15.7030 C   0  0  0  0  0  0
   37.8590    7.0120   16.8260 S   0  0  0  0  0  0
   37.0240    5.9410   15.8450 C   0  0  0  0  0  0
   37.6460    5.9040   14.6000 C   0  0  0  0  0  0
   38.7930    6.7370   14.5160 C   0  0  0  0  0  0
   39.9840    6.7470   13.0050 Br  0  0  0  0  0  0
   35.8260    5.1910   16.2550 C   0  0  0  0  0  0
   34.6880    5.7190   16.1530 O   0  0  0  0  0  0
   35.9360    3.8990   16.7540 O   0  5  0  0  0  0
   37.1530    5.0900   13.5700 O   0  0  0  0  0  0
   36.6710    5.5770   12.3250 C   0  0  0  0  0  0
   35.2350    5.9550   12.4420 C   0  0  0  0  0  0
   34.4130    5.1490   12.9500 O   0  5  0  0  0  0
   34.8100    7.2120   12.0330 O   0  0  0  0  0  0
   40.7660   12.0960   15.6530 N   0  0  0  0  0  0
   41.6820   12.9120   14.8590 C   0  0  0  0  0  0
   40.9040   13.7350   13.8240 C   0  0  0  0  0  0
   41.8460   14.6420   13.0390 C   0  0  0  0  0  0
   42.6380   15.4340   13.9740 N   0  0  0  0  0  0
   42.4630   16.8560   14.0610 C   0  0  0  0  0  0
   41.6920   17.4500   13.2620 O   0  0  0  0  0  0
   43.1830   17.6550   15.0930 C   0  0  0  0  0  0
   43.4450   14.7070   14.9470 C   0  0  0  0  0  0
   42.5380   13.7990   15.7730 C   0  0  0  0  0  0
   43.3204    8.5983   17.2368 H   0  0  0  0  0  0
   41.5196    6.9373   16.7791 H   0  0  0  0  0  0
   38.9922   10.0980   15.2686 H   0  0  0  0  0  0
   42.9594   11.0127   16.7134 H   0  0  0  0  0  0
   37.2563    6.4601   12.0290 H   0  0  0  0  0  0
   36.7737    4.7871   11.5664 H   0  0  0  0  0  0
   39.9207   12.5534   16.0233 H   0  0  0  0  0  0
   42.3667   12.2512   14.3071 H   0  0  0  0  0  0
   40.3961   13.0520   13.1272 H   0  0  0  0  0  0
   40.1674   14.3601   14.3501 H   0  0  0  0  0  0
   42.5150   14.0284   12.4177 H   0  0  0  0  0  0
   41.2608   15.3109   12.3909 H   0  0  0  0  0  0
   42.8794   17.3181   16.0952 H   0  0  0  0  0  0
   44.2677   17.5170   14.9727 H   0  0  0  0  0  0
   42.9332   18.7195   14.9727 H   0  0  0  0  0  0
   44.1950   14.0979   14.4212 H   0  0  0  0  0  0
   43.9563   15.4205   15.6099 H   0  0  0  0  0  0
   41.8772   14.4191   16.3965 H   0  0  0  0  0  0
   43.1649   13.1539   16.4062 H   0  0  0  0  0  0
  1  2  2  0  0  0
  1  6  1  0  0  0
  1 31  1  0  0  0
  2  3  1  0  0  0
  2 32  1  0  0  0
  3  4  2  0  0  0
  3  7  1  0  0  0
  4  5  1  0  0  0
  4 33  1  0  0  0
  5  6  2  0  0  0
  5 21  1  0  0  0
  6 34  1  0  0  0
  7  8  1  0  0  0
  7 11  2  0  0  0
  8  9  1  0  0  0
  9 13  1  0  0  0
  9 10  2  0  0  0
 10 11  1  0  0  0
 10 16  1  0  0  0
 11 12  1  0  0  0
 13 15  1  0  0  0
 13 14  2  0  0  0
 16 17  1  0  0  0
 17 18  1  0  0  0
 17 35  1  0  0  0
 17 36  1  0  0  0
 18 19  1  0  0  0
 18 20  2  0  0  0
 21 22  1  0  0  0
 21 37  1  0  0  0
 22 30  1  0  0  0
 22 23  1  0  0  0
 22 38  1  0  0  0
 23 24  1  0  0  0
 23 39  1  0  0  0
 23 40  1  0  0  0
 24 25  1  0  0  0
 24 41  1  0  0  0
 24 42  1  0  0  0
 25 26  1  0  0  0
 25 29  1  0  0  0
 26 28  1  0  0  0
 26 27  2  0  0  0
 28 43  1  0  0  0
 28 44  1  0  0  0
 28 45  1  0  0  0
 29 30  1  0  0  0
 29 46  1  0  0  0
 29 47  1  0  0  0
 30 48  1  0  0  0
 30 49  1  0  0  0
M  CHG  2  15  -1  19  -1
M  END
> <s_m_entry_id>
8

> <s_m_entry_id>
1353

> <MODEL>
1

> <REMARK>
 VINA RESULT:    -7.096      0.000      0.000
 INTER + INTRA:         -11.058
 INTER:                  -9.999
 INTRA:                  -1.059
 UNBOUND:                -1.059
  Name = /scratch/kmzp800/tmp1rx3_b3q/tmp91270q39.pdb
  8 active torsions:
  status: ('A' for Active; 'I' for Inactive)
    1  A    between atoms: C3_3  and  C4_4
    2  A    between atoms: C5_6  and  C6_7
    3  A    between atoms: C7_10  and  O3_11
    4  A    between atoms: O3_11  and  C8_12
    5  A    between atoms: C8_12  and  C9_13
    6  A    between atoms: C12_19  and  N1_20
    7  A    between atoms: N1_20  and  C13_21
    8  A    between atoms: C16_25  and  C17_27
                            x       y       z     vdW  Elec       q    Type
                         _______ _______ _______ _____ _____    ______ ____

> <TORSDO>
F 7

> <grid_id>
ptp1b-prepared

> <grid_path>
ptp1b_vina.pdbqt

> <grid_filename>
ptp1b_vina.pdbqt

> <docking_score>
-7.096

> <compound_name>
lig_23479

> <index_string>
7:0:0

> <s_m_Source_Path>
/projects/mai/users/kmzp800_harry/pmx_colab/docking_jobs/ptp1b/vina_prep

> <s_m_Source_File>
ptp1b_confs_vina_naive.sdf

> <i_m_Source_File_Index>
8

> <s_m_Source_Path>
/projects/mai/users/kmzp800_harry/pmx_colab/docking_jobs/ptp1b/vina_prep

> <s_m_Source_File>
ptp1b_vina_naive_confs.sdf

> <i_m_Source_File_Index>
8

$$$$
lig_23469
                    3D
 Schrodinger Suite 2021-4.
 41 43  0  0  1  0            999 V2000
   41.9950   11.5120   16.2560 C   0  0  0  0  0  0
   43.2120   10.9240   16.6120 C   0  0  0  0  0  0
   43.2600    9.5880   17.0140 C   0  0  0  0  0  0
   42.0850    8.8330   17.0660 C   0  0  0  0  0  0
   40.8520    9.4060   16.7250 C   0  0  0  0  0  0
   40.8200   10.7460   16.3160 C   0  0  0  0  0  0
   39.6220    8.5790   16.7760 C   0  0  0  0  0  0
   38.6150    8.4810   18.1230 S   0  0  0  0  0  0
   37.4880    7.4170   17.4780 C   0  0  0  0  0  0
   37.8970    7.1030   16.1730 C   0  0  0  0  0  0
   39.0700    7.7660   15.7750 C   0  0  0  0  0  0
   39.7780    7.5370   14.0080 Br  0  0  0  0  0  0
   36.2470    7.0390   18.1710 C   0  0  0  0  0  0
   35.4420    7.9130   18.5850 O   0  5  0  0  0  0
   35.9860    5.6990   18.4330 O   0  0  0  0  0  0
   37.2510    6.2070   15.3120 O   0  0  0  0  0  0
   35.9240    6.3940   14.8360 C   0  0  0  0  0  0
   35.9420    6.9340   13.4470 C   0  0  0  0  0  0
   35.9200    6.1470   12.4660 O   0  0  0  0  0  0
   35.9380    8.3050   13.2360 O   0  5  0  0  0  0
   41.5020   13.4140   14.6050 C   0  0  0  0  0  0
   41.0890   12.6430   13.6980 O   0  0  0  0  0  0
   41.9880   12.8870   15.8490 N   0  0  0  0  0  0
   41.4970   17.6450   13.9570 C   0  0  0  0  0  0
   40.4380   16.8650   13.4840 C   0  0  0  0  0  0
   40.4400   15.4820   13.6950 C   0  0  0  0  0  0
   41.5000   14.8710   14.3810 C   0  0  0  0  0  0
   42.5580   15.6620   14.8520 C   0  0  0  0  0  0
   42.5560   17.0440   14.6410 C   0  0  0  0  0  0
   44.1374   11.5175   16.5752 H   0  0  0  0  0  0
   44.2214    9.1300   17.2895 H   0  0  0  0  0  0
   42.1282    7.7789   17.3775 H   0  0  0  0  0  0
   39.8597   11.2046   16.0377 H   0  0  0  0  0  0
   35.3970    5.4285   14.8428 H   0  0  0  0  0  0
   35.4075    7.1110   15.4911 H   0  0  0  0  0  0
   42.3719   13.5681   16.5195 H   0  0  0  0  0  0
   41.4963   18.7323   13.7905 H   0  0  0  0  0  0
   39.6034   17.3383   12.9461 H   0  0  0  0  0  0
   39.6057   14.8704   13.3209 H   0  0  0  0  0  0
   43.3943   15.1923   15.3906 H   0  0  0  0  0  0
   43.3888   17.6583   15.0139 H   0  0  0  0  0  0
  1  6  1  0  0  0
  1  2  2  0  0  0
  1 23  1  0  0  0
  2  3  1  0  0  0
  2 30  1  0  0  0
  3  4  2  0  0  0
  3 31  1  0  0  0
  4  5  1  0  0  0
  4 32  1  0  0  0
  5  7  1  0  0  0
  5  6  2  0  0  0
  6 33  1  0  0  0
  7  8  1  0  0  0
  7 11  2  0  0  0
  8  9  1  0  0  0
  9 13  1  0  0  0
  9 10  2  0  0  0
 10 11  1  0  0  0
 10 16  1  0  0  0
 11 12  1  0  0  0
 13 15  2  0  0  0
 13 14  1  0  0  0
 16 17  1  0  0  0
 17 18  1  0  0  0
 17 34  1  0  0  0
 17 35  1  0  0  0
 18 19  2  0  0  0
 18 20  1  0  0  0
 21 23  1  0  0  0
 21 22  2  0  0  0
 21 27  1  0  0  0
 23 36  1  0  0  0
 24 29  2  0  0  0
 24 25  1  0  0  0
 24 37  1  0  0  0
 25 26  2  0  0  0
 25 38  1  0  0  0
 26 27  1  0  0  0
 26 39  1  0  0  0
 27 28  2  0  0  0
 28 29  1  0  0  0
 28 40  1  0  0  0
 29 41  1  0  0  0
M  CHG  2  14  -1  20  -1
M  END
> <s_m_entry_id>
9

> <s_m_entry_id>
1354

> <MODEL>
1

> <REMARK>
 VINA RESULT:    -7.673      0.000      0.000
 INTER + INTRA:         -11.706
 INTER:                 -10.813
 INTRA:                  -0.893
 UNBOUND:                -0.893
  Name = /scratch/kmzp800/tmpwples33q/tmpu6xm6930.pdb
  7 active torsions:
  status: ('A' for Active; 'I' for Inactive)
    1  A    between atoms: C4_4  and  C5_5
    2  A    between atoms: N1_7  and  C6_8
    3  A    between atoms: C10_12  and  C11_13
    4  A    between atoms: C12_15  and  C13_16
    5  A    between atoms: C14_19  and  O4_20
    6  A    between atoms: O4_20  and  C15_21
    7  A    between atoms: C15_21  and  C16_22
                            x       y       z     vdW  Elec       q    Type
                         _______ _______ _______ _____ _____    ______ ____

> <TORSDO>
F 7

> <grid_id>
ptp1b-prepared

> <grid_path>
ptp1b_vina.pdbqt

> <grid_filename>
ptp1b_vina.pdbqt

> <docking_score>
-7.673

> <compound_name>
lig_23469

> <index_string>
8:0:0

> <s_m_Source_Path>
/projects/mai/users/kmzp800_harry/pmx_colab/docking_jobs/ptp1b/vina_prep

> <s_m_Source_File>
ptp1b_confs_vina_naive.sdf

> <i_m_Source_File_Index>
9

> <s_m_Source_Path>
/projects/mai/users/kmzp800_harry/pmx_colab/docking_jobs/ptp1b/vina_prep

> <s_m_Source_File>
ptp1b_vina_naive_confs.sdf

> <i_m_Source_File_Index>
9

$$$$
lig_23471
                    3D
 Schrodinger Suite 2021-4.
 35 36  0  0  1  0            999 V2000
   42.3170   12.8280   15.7140 C   0  0  0  0  0  0
   43.3850   13.6940   16.6850 S   0  0  0  0  0  0
   43.2830   15.1470   15.8570 C   0  0  0  0  0  0
   42.4000   14.9920   14.7900 C   0  0  0  0  0  0
   41.8600   13.6820   14.6930 C   0  0  0  0  0  0
   40.7590   13.0760   13.2350 Br  0  0  0  0  0  0
   42.4970    9.2060   16.8460 C   0  0  0  0  0  0
   42.8290   10.5490   16.6580 C   0  0  0  0  0  0
   41.9750   11.4050   15.9500 C   0  0  0  0  0  0
   40.7870   10.8810   15.4180 C   0  0  0  0  0  0
   40.4440    9.5340   15.6010 C   0  0  0  0  0  0
   41.3050    8.7010   16.3200 C   0  0  0  0  0  0
   39.2310    8.9800   15.0700 N   0  0  0  0  0  0
   37.9620    8.9000   15.7310 C   0  0  0  0  0  0
   37.8140    9.3430   16.9030 O   0  0  0  0  0  0
   36.8870    8.3250   15.0550 O   0  0  0  0  0  0
   36.8920    8.1530   13.6450 C   0  0  0  0  0  0
   44.0140   16.3710   16.2250 C   0  0  0  0  0  0
   44.4490   16.5150   17.3970 O   0  5  0  0  0  0
   44.2310   17.3750   15.2910 O   0  0  0  0  0  0
   42.1290   16.0660   13.9300 O   0  0  0  0  0  0
   41.0540   16.9790   14.0920 C   0  0  0  0  0  0
   40.3500   17.1530   12.7950 C   0  0  0  0  0  0
   41.0100   17.2190   11.7260 O   0  0  0  0  0  0
   38.9640   17.1970   12.7580 O   0  5  0  0  0  0
   43.1736    8.5455   17.4081 H   0  0  0  0  0  0
   43.7712   10.9394   17.0702 H   0  0  0  0  0  0
   40.1137   11.5380   14.8479 H   0  0  0  0  0  0
   41.0435    7.6435   16.4726 H   0  0  0  0  0  0
   39.2775    8.6002   14.1137 H   0  0  0  0  0  0
   36.9232    7.0796   13.4067 H   0  0  0  0  0  0
   35.9806    8.5970   13.2182 H   0  0  0  0  0  0
   37.7761    8.6492   13.2182 H   0  0  0  0  0  0
   40.3503   16.5871   14.8411 H   0  0  0  0  0  0
   41.4461   17.9500   14.4287 H   0  0  0  0  0  0
  1  9  1  0  0  0
  1  2  1  0  0  0
  1  5  2  0  0  0
  2  3  1  0  0  0
  3 18  1  0  0  0
  3  4  2  0  0  0
  4  5  1  0  0  0
  4 21  1  0  0  0
  5  6  1  0  0  0
  7  8  2  0  0  0
  7 12  1  0  0  0
  7 26  1  0  0  0
  8  9  1  0  0  0
  8 27  1  0  0  0
  9 10  2  0  0  0
 10 11  1  0  0  0
 10 28  1  0  0  0
 11 12  2  0  0  0
 11 13  1  0  0  0
 12 29  1  0  0  0
 13 14  1  0  0  0
 13 30  1  0  0  0
 14 15  2  0  0  0
 14 16  1  0  0  0
 16 17  1  0  0  0
 17 31  1  0  0  0
 17 32  1  0  0  0
 17 33  1  0  0  0
 18 19  1  0  0  0
 18 20  2  0  0  0
 21 22  1  0  0  0
 22 23  1  0  0  0
 22 34  1  0  0  0
 22 35  1  0  0  0
 23 24  2  0  0  0
 23 25  1  0  0  0
M  CHG  2  19  -1  25  -1
M  END
> <s_m_entry_id>
10

> <s_m_entry_id>
1355

> <MODEL>
1

> <REMARK>
 VINA RESULT:    -7.486      0.000      0.000
 INTER + INTRA:         -10.516
 INTER:                 -10.549
 INTRA:                   0.033
 UNBOUND:                 0.033
  Name = /scratch/kmzp800/tmpea3i3d42/tmp_f_vogbj.pdb
  8 active torsions:
  status: ('A' for Active; 'I' for Inactive)
    1  A    between atoms: C3_3  and  C4_4
    2  A    between atoms: C5_6  and  C6_7
    3  A    between atoms: C7_10  and  O3_11
    4  A    between atoms: O3_11  and  C8_12
    5  A    between atoms: C8_12  and  C9_13
    6  A    between atoms: C12_19  and  N1_20
    7  A    between atoms: C13_21  and  O7_23
    8  A    between atoms: O7_23  and  C14_24
                            x       y       z     vdW  Elec       q    Type
                         _______ _______ _______ _____ _____    ______ ____

> <TORSDO>
F 7

> <grid_id>
ptp1b-prepared

> <grid_path>
ptp1b_vina.pdbqt

> <grid_filename>
ptp1b_vina.pdbqt

> <docking_score>
-7.486

> <compound_name>
lig_23471

> <index_string>
9:0:0

> <s_m_Source_Path>
/projects/mai/users/kmzp800_harry/pmx_colab/docking_jobs/ptp1b/vina_prep

> <s_m_Source_File>
ptp1b_confs_vina_naive.sdf

> <i_m_Source_File_Index>
10

> <s_m_Source_Path>
/projects/mai/users/kmzp800_harry/pmx_colab/docking_jobs/ptp1b/vina_prep

> <s_m_Source_File>
ptp1b_vina_naive_confs.sdf

> <i_m_Source_File_Index>
10

$$$$
lig_23467
                    3D
 Schrodinger Suite 2021-4.
 31 32  0  0  1  0            999 V2000
   43.0380   13.4910   16.3460 C   0  0  0  0  0  0
   43.8100   14.9880   16.3060 S   0  0  0  0  0  0
   43.2030   15.4930   14.8270 C   0  0  0  0  0  0
   42.3800   14.4900   14.3210 C   0  0  0  0  0  0
   42.2670   13.3660   15.1770 C   0  0  0  0  0  0
   41.0360   11.9200   14.8700 Br  0  0  0  0  0  0
   43.1930   12.0050   19.8380 C   0  0  0  0  0  0
   43.4050   10.6550   19.5470 C   0  0  0  0  0  0
   43.5010   10.2270   18.2200 C   0  0  0  0  0  0
   43.3840   11.1680   17.1850 C   0  0  0  0  0  0
   43.1820   12.5280   17.4630 C   0  0  0  0  0  0
   43.0790   12.9330   18.8010 C   0  0  0  0  0  0
   43.7090    8.8700   17.9590 O   0  0  0  0  0  0
   44.4930    8.0380   18.8020 C   0  0  0  0  0  0
   43.5200   16.7800   14.1880 C   0  0  0  0  0  0
   43.7910   16.8240   12.9600 O   0  0  0  0  0  0
   43.5220   17.9560   14.9270 O   0  5  0  0  0  0
   41.7360   14.6420   13.0840 O   0  0  0  0  0  0
   40.3970   15.0900   12.9280 C   0  0  0  0  0  0
   40.3500   16.5790   12.9420 C   0  0  0  0  0  0
   40.0340   17.1890   13.9970 O   0  5  0  0  0  0
   40.6150   17.2930   11.7820 O   0  0  0  0  0  0
   43.1159   12.3367   20.8840 H   0  0  0  0  0  0
   43.4967    9.9260   20.3657 H   0  0  0  0  0  0
   43.4518   10.8336   16.1393 H   0  0  0  0  0  0
   42.9065   13.9935   19.0366 H   0  0  0  0  0  0
   44.2733    8.2712   19.8543 H   0  0  0  0  0  0
   44.2528    6.9833   18.6023 H   0  0  0  0  0  0
   45.5601    8.2152   18.6023 H   0  0  0  0  0  0
   39.9997   14.7225   11.9703 H   0  0  0  0  0  0
   39.7889   14.7029   13.7589 H   0  0  0  0  0  0
  1 11  1  0  0  0
  1  2  1  0  0  0
  1  5  2  0  0  0
  2  3  1  0  0  0
  3  4  2  0  0  0
  3 15  1  0  0  0
  4  5  1  0  0  0
  4 18  1  0  0  0
  5  6  1  0  0  0
  7  8  2  0  0  0
  7 12  1  0  0  0
  7 23  1  0  0  0
  8  9  1  0  0  0
  8 24  1  0  0  0
  9 10  2  0  0  0
  9 13  1  0  0  0
 10 11  1  0  0  0
 10 25  1  0  0  0
 11 12  2  0  0  0
 12 26  1  0  0  0
 13 14  1  0  0  0
 14 27  1  0  0  0
 14 28  1  0  0  0
 14 29  1  0  0  0
 15 17  1  0  0  0
 15 16  2  0  0  0
 18 19  1  0  0  0
 19 20  1  0  0  0
 19 30  1  0  0  0
 19 31  1  0  0  0
 20 21  1  0  0  0
 20 22  2  0  0  0
M  CHG  2  17  -1  21  -1
M  END
> <s_m_entry_id>
11

> <s_m_entry_id>
1356

> <MODEL>
1

> <REMARK>
 VINA RESULT:    -6.533      0.000      0.000
 INTER + INTRA:          -9.152
 INTER:                  -8.825
 INTRA:                  -0.327
 UNBOUND:                -0.327
  Name = /scratch/kmzp800/tmp7d75bt99/tmp9txxzzuh.pdb
  7 active torsions:
  status: ('A' for Active; 'I' for Inactive)
    1  A    between atoms: C3_3  and  O1_4
    2  A    between atoms: O1_4  and  C4_5
    3  A    between atoms: C6_7  and  C7_8
    4  A    between atoms: C8_10  and  C9_11
    5  A    between atoms: C10_14  and  O4_15
    6  A    between atoms: O4_15  and  C11_16
    7  A    between atoms: C11_16  and  C12_17
                            x       y       z     vdW  Elec       q    Type
                         _______ _______ _______ _____ _____    ______ ____

> <TORSDO>
F 6

> <grid_id>
ptp1b-prepared

> <grid_path>
ptp1b_vina.pdbqt

> <grid_filename>
ptp1b_vina.pdbqt

> <docking_score>
-6.533

> <compound_name>
lig_23467

> <index_string>
10:0:0

> <s_m_Source_Path>
/projects/mai/users/kmzp800_harry/pmx_colab/docking_jobs/ptp1b/vina_prep

> <s_m_Source_File>
ptp1b_confs_vina_naive.sdf

> <i_m_Source_File_Index>
11

> <s_m_Source_Path>
/projects/mai/users/kmzp800_harry/pmx_colab/docking_jobs/ptp1b/vina_prep

> <s_m_Source_File>
ptp1b_vina_naive_confs.sdf

> <i_m_Source_File_Index>
11

$$$$
lig_23486
                    3D
 Schrodinger Suite 2021-4.
 60 63  0  0  1  0            999 V2000
   41.0230    9.7930   18.2410 C   0  0  0  0  0  0
   41.9700    8.7820   18.0590 C   0  0  0  0  0  0
   43.1120    9.0210   17.2900 C   0  0  0  0  0  0
   43.3110   10.2730   16.7000 C   0  0  0  0  0  0
   42.3730   11.2990   16.8720 C   0  0  0  0  0  0
   41.2320   11.0450   17.6450 C   0  0  0  0  0  0
   42.5600   12.6430   16.2750 C   0  0  0  0  0  0
   43.5600   13.8310   16.9310 S   0  0  0  0  0  0
   43.2880   15.0110   15.7680 C   0  0  0  0  0  0
   42.4070   14.4790   14.8170 C   0  0  0  0  0  0
   41.9860   13.1700   15.1110 C   0  0  0  0  0  0
   40.8660   12.3140   14.0570 Cl  0  0  0  0  0  0
   43.8140   16.3820   15.8650 C   0  0  0  0  0  0
   44.9660   16.5790   16.3320 O   0  5  0  0  0  0
   43.0310   17.4730   15.5090 O   0  0  0  0  0  0
   41.9770   15.1270   13.6520 O   0  0  0  0  0  0
   40.6890   15.7160   13.5080 C   0  0  0  0  0  0
   40.7630   16.9120   12.6250 C   0  0  0  0  0  0
   41.8710   17.4680   12.4090 O   0  5  0  0  0  0
   39.6150   17.3930   12.0100 O   0  0  0  0  0  0
   39.8560    9.5320   19.0330 N   0  0  0  0  0  0
   36.9060    7.2180   17.0810 N   0  0  2  0  0  0
   37.2640    8.4860   16.4210 C   0  0  0  0  0  0
   38.4960    9.1890   17.0120 C   0  0  0  0  0  0
   38.6100    8.9650   18.5220 C   0  0  0  0  0  0
   38.4950    7.4880   18.9220 C   0  0  0  0  0  0
   38.0540    6.6100   17.7550 C   0  0  0  0  0  0
   36.3990    6.1140   15.8420 S   0  0  0  0  0  0
   37.1420    4.8150   15.9990 O   0  0  0  0  0  0
   34.9240    5.8530   15.9740 O   0  0  0  0  0  0
   36.7400    6.8050   14.2280 C   0  0  0  0  0  0
   35.9720    3.9480   11.1260 C   0  0  0  0  0  0
   34.9150    4.6660   11.6910 C   0  0  0  0  0  0
   35.1650    5.5970   12.7040 C   0  0  0  0  0  0
   36.4730    5.8090   13.1540 C   0  0  0  0  0  0
   37.5310    5.0930   12.5840 C   0  0  0  0  0  0
   37.2810    4.1620   11.5710 C   0  0  0  0  0  0
   41.8163    7.7961   18.5219 H   0  0  0  0  0  0
   43.8557    8.2229   17.1486 H   0  0  0  0  0  0
   44.2120   10.4538   16.0955 H   0  0  0  0  0  0
   40.4871   11.8419   17.7867 H   0  0  0  0  0  0
   40.0011   14.9804   13.0655 H   0  0  0  0  0  0
   40.3244   16.0250   14.4987 H   0  0  0  0  0  0
   39.8995    9.7612   20.0362 H   0  0  0  0  0  0
   37.4648    8.2759   15.3601 H   0  0  0  0  0  0
   36.4137    9.1673   16.5724 H   0  0  0  0  0  0
   39.3993    8.7937   16.5244 H   0  0  0  0  0  0
   38.3906   10.2694   16.8341 H   0  0  0  0  0  0
   37.7553    9.4853   18.9790 H   0  0  0  0  0  0
   39.4759    7.1393   19.2773 H   0  0  0  0  0  0
   37.7334    7.4093   19.7118 H   0  0  0  0  0  0
   37.7712    5.6163   18.1326 H   0  0  0  0  0  0
   38.8845    6.5133   17.0402 H   0  0  0  0  0  0
   36.0985    7.6846   14.0704 H   0  0  0  0  0  0
   37.8017    7.0898   14.1858 H   0  0  0  0  0  0
   35.7749    3.2140   10.3308 H   0  0  0  0  0  0
   33.8863    4.4990   11.3390 H   0  0  0  0  0  0
   34.3327    6.1632   13.1475 H   0  0  0  0  0  0
   38.5603    5.2625   12.9329 H   0  0  0  0  0  0
   38.1132    3.5982   11.1242 H   0  0  0  0  0  0
  1 21  1  0  0  0
  1  2  2  0  0  0
  1  6  1  0  0  0
  2  3  1  0  0  0
  2 38  1  0  0  0
  3  4  2  0  0  0
  3 39  1  0  0  0
  4  5  1  0  0  0
  4 40  1  0  0  0
  5  6  2  0  0  0
  5  7  1  0  0  0
  6 41  1  0  0  0
  7  8  1  0  0  0
  7 11  2  0  0  0
  8  9  1  0  0  0
  9 13  1  0  0  0
  9 10  2  0  0  0
 10 11  1  0  0  0
 10 16  1  0  0  0
 11 12  1  0  0  0
 13 14  1  0  0  0
 13 15  2  0  0  0
 16 17  1  0  0  0
 17 18  1  0  0  0
 17 42  1  0  0  0
 17 43  1  0  0  0
 18 19  1  0  0  0
 18 20  2  0  0  0
 21 25  1  0  0  0
 21 44  1  0  0  0
 22 27  1  0  0  0
 22 23  1  0  0  0
 22 28  1  0  0  0
 23 24  1  0  0  0
 23 45  1  0  0  0
 23 46  1  0  0  0
 24 25  1  0  0  0
 24 47  1  0  0  0
 24 48  1  0  0  0
 25 26  1  0  0  0
 25 49  1  0  0  0
 26 27  1  0  0  0
 26 50  1  0  0  0
 26 51  1  0  0  0
 27 52  1  0  0  0
 27 53  1  0  0  0
 28 30  2  0  0  0
 28 29  2  0  0  0
 28 31  1  0  0  0
 31 35  1  0  0  0
 31 54  1  0  0  0
 31 55  1  0  0  0
 32 37  2  0  0  0
 32 33  1  0  0  0
 32 56  1  0  0  0
 33 34  2  0  0  0
 33 57  1  0  0  0
 34 35  1  0  0  0
 34 58  1  0  0  0
 35 36  2  0  0  0
 36 37  1  0  0  0
 36 59  1  0  0  0
 37 60  1  0  0  0
M  CHG  2  14  -1  19  -1
M  END
> <s_m_entry_id>
12

> <s_m_entry_id>
1357

> <MODEL>
1

> <REMARK>
 VINA RESULT:    -8.183      0.000      0.000
 INTER + INTRA:         -14.218
 INTER:                 -12.967
 INTRA:                  -1.251
 UNBOUND:                -1.251
  Name = /scratch/kmzp800/tmpxfvg6j9y/tmpwkyc_4co.pdb
  10 active torsions:
  status: ('A' for Active; 'I' for Inactive)
    1  A    between atoms: C4_4  and  C5_5
    2  A    between atoms: C5_5  and  S1_6
    3  A    between atoms: S1_6  and  N1_9
    4  A    between atoms: C8_12  and  N2_13
    5  A    between atoms: N2_13  and  C9_14
    6  A    between atoms: C13_18  and  C14_19
    7  A    between atoms: C15_21  and  C16_22
    8  A    between atoms: C17_25  and  O5_26
    9  A    between atoms: O5_26  and  C18_27
   10  A    between atoms: C18_27  and  C19_28
                            x       y       z     vdW  Elec       q    Type
                         _______ _______ _______ _____ _____    ______ ____

> <TORSDO>
F 10

> <grid_id>
ptp1b-prepared

> <grid_path>
ptp1b_vina.pdbqt

> <grid_filename>
ptp1b_vina.pdbqt

> <docking_score>
-8.183

> <compound_name>
lig_23486

> <index_string>
11:0:0

> <s_m_Source_Path>
/projects/mai/users/kmzp800_harry/pmx_colab/docking_jobs/ptp1b/vina_prep

> <s_m_Source_File>
ptp1b_confs_vina_naive.sdf

> <i_m_Source_File_Index>
12

> <s_m_Source_Path>
/projects/mai/users/kmzp800_harry/pmx_colab/docking_jobs/ptp1b/vina_prep

> <s_m_Source_File>
ptp1b_vina_naive_confs.sdf

> <i_m_Source_File_Index>
12

$$$$
lig_23480
                    3D
 Schrodinger Suite 2021-4.
 53 55  0  0  1  0            999 V2000
   42.4040    9.2750   16.8700 C   0  0  0  0  0  0
   42.7570   10.6170   16.7030 C   0  0  0  0  0  0
   41.9510   11.4800   15.9460 C   0  0  0  0  0  0
   40.7930   10.9660   15.3470 C   0  0  0  0  0  0
   40.4360    9.6190   15.5030 C   0  0  0  0  0  0
   41.2450    8.7780   16.2710 C   0  0  0  0  0  0
   42.3210   12.8960   15.7200 C   0  0  0  0  0  0
   43.4020   13.7350   16.7030 S   0  0  0  0  0  0
   43.3250   15.1980   15.8880 C   0  0  0  0  0  0
   42.4410   15.0680   14.8170 C   0  0  0  0  0  0
   41.8800   13.7670   14.7080 C   0  0  0  0  0  0
   40.7690   13.1900   13.2440 Br  0  0  0  0  0  0
   44.0720   16.4060   16.2710 C   0  0  0  0  0  0
   44.5320   16.5200   17.4370 O   0  5  0  0  0  0
   44.2770   17.4330   15.3570 O   0  0  0  0  0  0
   42.1890   16.1540   13.9670 O   0  0  0  0  0  0
   41.1140   17.0670   14.1200 C   0  0  0  0  0  0
   40.4010   17.2160   12.8260 C   0  0  0  0  0  0
   39.1450   17.2810   12.8030 O   0  5  0  0  0  0
   41.1180   17.2420   11.6370 O   0  0  0  0  0  0
   39.2550    9.0920   14.8900 N   0  0  0  0  0  0
   38.6960    7.7890   15.2310 C   0  0  0  0  0  0
   39.5560    6.6610   14.6690 C   0  0  0  0  0  0
   39.5990    6.7050   13.1290 C   0  0  0  0  0  0
   39.1360    5.4080   12.4640 C   0  0  0  0  0  0
   37.8910    4.9510   13.0780 N   0  0  0  0  0  0
   36.7910    4.5440   12.2560 C   0  0  0  0  0  0
   36.8960    4.5760   10.9980 O   0  0  0  0  0  0
   37.7760    4.8680   14.5360 C   0  0  0  0  0  0
   39.0690    5.3170   15.2220 C   0  0  0  0  0  0
   35.6010    4.1150   12.8500 O   0  0  0  0  0  0
   34.3320    4.4100   12.2880 C   0  0  0  0  0  0
   43.0395    8.6103   17.4735 H   0  0  0  0  0  0
   43.6762   11.0003   17.1700 H   0  0  0  0  0  0
   40.1544   11.6294   14.7453 H   0  0  0  0  0  0
   40.9682    7.7218   16.4041 H   0  0  0  0  0  0
   40.4164   16.6874   14.8811 H   0  0  0  0  0  0
   41.5065   18.0447   14.4363 H   0  0  0  0  0  0
   38.7778    9.6593   14.1749 H   0  0  0  0  0  0
   38.6480    7.6935   16.3258 H   0  0  0  0  0  0
   37.6897    7.7139   14.7931 H   0  0  0  0  0  0
   40.5971    6.7939   14.9984 H   0  0  0  0  0  0
   38.9477    7.5226   12.7866 H   0  0  0  0  0  0
   40.6497    6.8568   12.8409 H   0  0  0  0  0  0
   38.9694    5.5873   11.3916 H   0  0  0  0  0  0
   39.9094    4.6371   12.5964 H   0  0  0  0  0  0
   36.9508    5.5152   14.8679 H   0  0  0  0  0  0
   37.5830    3.8203   14.8102 H   0  0  0  0  0  0
   39.8465    4.5574   15.0532 H   0  0  0  0  0  0
   38.8680    5.4365   16.2968 H   0  0  0  0  0  0
   33.6040    4.5792   13.0950 H   0  0  0  0  0  0
   34.4075    5.3145   11.6666 H   0  0  0  0  0  0
   34.0008    3.5649   11.6666 H   0  0  0  0  0  0
  1  2  2  0  0  0
  1  6  1  0  0  0
  1 33  1  0  0  0
  2  3  1  0  0  0
  2 34  1  0  0  0
  3  4  2  0  0  0
  3  7  1  0  0  0
  4  5  1  0  0  0
  4 35  1  0  0  0
  5  6  2  0  0  0
  5 21  1  0  0  0
  6 36  1  0  0  0
  7  8  1  0  0  0
  7 11  2  0  0  0
  8  9  1  0  0  0
  9 13  1  0  0  0
  9 10  2  0  0  0
 10 11  1  0  0  0
 10 16  1  0  0  0
 11 12  1  0  0  0
 13 14  1  0  0  0
 13 15  2  0  0  0
 16 17  1  0  0  0
 17 18  1  0  0  0
 17 37  1  0  0  0
 17 38  1  0  0  0
 18 19  1  0  0  0
 18 20  2  0  0  0
 21 22  1  0  0  0
 21 39  1  0  0  0
 22 23  1  0  0  0
 22 40  1  0  0  0
 22 41  1  0  0  0
 23 30  1  0  0  0
 23 24  1  0  0  0
 23 42  1  0  0  0
 24 25  1  0  0  0
 24 43  1  0  0  0
 24 44  1  0  0  0
 25 26  1  0  0  0
 25 45  1  0  0  0
 25 46  1  0  0  0
 26 29  1  0  0  0
 26 27  1  0  0  0
 27 31  1  0  0  0
 27 28  2  0  0  0
 29 30  1  0  0  0
 29 47  1  0  0  0
 29 48  1  0  0  0
 30 49  1  0  0  0
 30 50  1  0  0  0
 31 32  1  0  0  0
 32 51  1  0  0  0
 32 52  1  0  0  0
 32 53  1  0  0  0
M  CHG  2  14  -1  19  -1
M  END
> <s_m_entry_id>
13

> <s_m_entry_id>
1358

> <MODEL>
1

> <REMARK>
 VINA RESULT:    -8.241      0.000      0.000
 INTER + INTRA:         -12.469
 INTER:                 -12.578
 INTRA:                   0.109
 UNBOUND:                 0.109
  Name = /scratch/kmzp800/tmp9gkzapmq/tmp52d6zc9b.pdb
  10 active torsions:
  status: ('A' for Active; 'I' for Inactive)
    1  A    between atoms: C3_3  and  C4_4
    2  A    between atoms: C5_6  and  C6_7
    3  A    between atoms: C7_10  and  O3_11
    4  A    between atoms: O3_11  and  C8_12
    5  A    between atoms: C8_12  and  C9_13
    6  A    between atoms: C12_19  and  N1_20
    7  A    between atoms: N1_20  and  C13_21
    8  A    between atoms: C13_21  and  C14_22
    9  A    between atoms: C17_26  and  O7_28
   10  A    between atoms: O7_28  and  C18_29
                            x       y       z     vdW  Elec       q    Type
                         _______ _______ _______ _____ _____    ______ ____

> <TORSDO>
F 9

> <grid_id>
ptp1b-prepared

> <grid_path>
ptp1b_vina.pdbqt

> <grid_filename>
ptp1b_vina.pdbqt

> <docking_score>
-8.241

> <compound_name>
lig_23480

> <index_string>
12:0:0

> <s_m_Source_Path>
/projects/mai/users/kmzp800_harry/pmx_colab/docking_jobs/ptp1b/vina_prep

> <s_m_Source_File>
ptp1b_confs_vina_naive.sdf

> <i_m_Source_File_Index>
13

> <s_m_Source_Path>
/projects/mai/users/kmzp800_harry/pmx_colab/docking_jobs/ptp1b/vina_prep

> <s_m_Source_File>
ptp1b_vina_naive_confs.sdf

> <i_m_Source_File_Index>
13

$$$$
lig_23470
                    3D
 Schrodinger Suite 2021-4.
 42 43  0  0  1  0            999 V2000
   42.5380    8.9720   16.8260 C   0  0  0  0  0  0
   42.9390   10.3040   16.6970 C   0  0  0  0  0  0
   42.0240   11.2890   16.2990 C   0  0  0  0  0  0
   40.7050   10.9100   16.0110 C   0  0  0  0  0  0
   40.2930    9.5750   16.1350 C   0  0  0  0  0  0
   41.2180    8.6110   16.5460 C   0  0  0  0  0  0
   42.4750   12.6910   16.1430 C   0  0  0  0  0  0
   43.4320   13.4910   17.2750 S   0  0  0  0  0  0
   43.5270   14.9560   16.4630 C   0  0  0  0  0  0
   42.8090   14.8500   15.2740 C   0  0  0  0  0  0
   42.1980   13.5830   15.0940 C   0  0  0  0  0  0
   40.9510   13.1950   13.6810 Br  0  0  0  0  0  0
   44.2660   16.1330   16.9440 C   0  0  0  0  0  0
   45.0690   16.7280   16.1790 O   0  0  0  0  0  0
   44.0870   16.6000   18.2400 O   0  5  0  0  0  0
   42.7210   15.9320   14.3850 O   0  0  0  0  0  0
   41.8200   17.0210   14.5360 C   0  0  0  0  0  0
   41.0160   17.1960   13.2940 C   0  0  0  0  0  0
   41.5900   17.4370   12.2020 O   0  0  0  0  0  0
   39.6310   17.1300   13.3500 O   0  5  0  0  0  0
   38.9470    9.1660   15.8550 N   0  0  0  0  0  0
   38.4990    8.4080   14.7250 C   0  0  0  0  0  0
   39.3180    7.9810   13.8660 O   0  0  0  0  0  0
   37.1000    8.1330   14.5860 N   0  0  0  0  0  0
   36.5060    7.3750   13.4890 C   0  0  0  0  0  0
   35.5510    6.3180   14.0150 C   0  0  0  0  0  0
   35.7940    8.2960   12.5150 C   0  0  0  0  0  0
   43.2611    8.2081   17.1478 H   0  0  0  0  0  0
   43.9817   10.5825   16.9095 H   0  0  0  0  0  0
   39.9822   11.6715   15.6827 H   0  0  0  0  0  0
   40.9045    7.5617   16.6496 H   0  0  0  0  0  0
   41.1451   16.8203   15.3811 H   0  0  0  0  0  0
   42.3942   17.9398   14.7257 H   0  0  0  0  0  0
   38.2280    9.4464   16.5372 H   0  0  0  0  0  0
   36.4673    8.4965   15.3129 H   0  0  0  0  0  0
   37.3207    6.8681   12.9512 H   0  0  0  0  0  0
   35.5612    6.3293   15.1149 H   0  0  0  0  0  0
   34.5336    6.5316   13.6556 H   0  0  0  0  0  0
   35.8664    5.3274   13.6556 H   0  0  0  0  0  0
   35.2150    9.0450   13.0751 H   0  0  0  0  0  0
   36.5361    8.8046   11.8820 H   0  0  0  0  0  0
   35.1149    7.7059   11.8820 H   0  0  0  0  0  0
  1  2  2  0  0  0
  1  6  1  0  0  0
  1 28  1  0  0  0
  2  3  1  0  0  0
  2 29  1  0  0  0
  3  4  2  0  0  0
  3  7  1  0  0  0
  4  5  1  0  0  0
  4 30  1  0  0  0
  5  6  2  0  0  0
  5 21  1  0  0  0
  6 31  1  0  0  0
  7  8  1  0  0  0
  7 11  2  0  0  0
  8  9  1  0  0  0
  9 13  1  0  0  0
  9 10  2  0  0  0
 10 11  1  0  0  0
 10 16  1  0  0  0
 11 12  1  0  0  0
 13 15  1  0  0  0
 13 14  2  0  0  0
 16 17  1  0  0  0
 17 18  1  0  0  0
 17 32  1  0  0  0
 17 33  1  0  0  0
 18 20  1  0  0  0
 18 19  2  0  0  0
 21 22  1  0  0  0
 21 34  1  0  0  0
 22 23  2  0  0  0
 22 24  1  0  0  0
 24 25  1  0  0  0
 24 35  1  0  0  0
 25 26  1  0  0  0
 25 27  1  0  0  0
 25 36  1  0  0  0
 26 37  1  0  0  0
 26 38  1  0  0  0
 26 39  1  0  0  0
 27 40  1  0  0  0
 27 41  1  0  0  0
 27 42  1  0  0  0
M  CHG  2  15  -1  20  -1
M  END
> <s_m_entry_id>
14

> <s_m_entry_id>
1359

> <MODEL>
1

> <REMARK>
 VINA RESULT:    -7.429      0.000      0.000
 INTER + INTRA:         -10.835
 INTER:                 -10.470
 INTRA:                  -0.366
 UNBOUND:                -0.366
  Name = /scratch/kmzp800/tmpagdwabsg/tmpt1bh3yif.pdb
  9 active torsions:
  status: ('A' for Active; 'I' for Inactive)
    1  A    between atoms: C3_3  and  C4_4
    2  A    between atoms: C5_6  and  C6_7
    3  A    between atoms: C7_10  and  O3_11
    4  A    between atoms: O3_11  and  C8_12
    5  A    between atoms: C8_12  and  C9_13
    6  A    between atoms: C12_19  and  N1_20
    7  A    between atoms: N2_23  and  C14_24
    8  A    between atoms: C14_24  and  C15_25
    9  A    between atoms: C14_24  and  C16_26
                            x       y       z     vdW  Elec       q    Type
                         _______ _______ _______ _____ _____    ______ ____

> <TORSDO>
F 7

> <grid_id>
ptp1b-prepared

> <grid_path>
ptp1b_vina.pdbqt

> <grid_filename>
ptp1b_vina.pdbqt

> <docking_score>
-7.429

> <compound_name>
lig_23470

> <index_string>
13:0:0

> <s_m_Source_Path>
/projects/mai/users/kmzp800_harry/pmx_colab/docking_jobs/ptp1b/vina_prep

> <s_m_Source_File>
ptp1b_confs_vina_naive.sdf

> <i_m_Source_File_Index>
14

> <s_m_Source_Path>
/projects/mai/users/kmzp800_harry/pmx_colab/docking_jobs/ptp1b/vina_prep

> <s_m_Source_File>
ptp1b_vina_naive_confs.sdf

> <i_m_Source_File_Index>
14

$$$$
lig_20669_2qbr
                    3D
 Schrodinger Suite 2021-4.
 42 44  0  0  1  0            999 V2000
   41.8390   11.0840   15.8190 C   0  0  0  0  0  0
   42.7970   10.4090   16.5880 C   0  0  0  0  0  0
   42.5650    9.0940   16.9970 C   0  0  0  0  0  0
   41.3770    8.4520   16.6440 C   0  0  0  0  0  0
   40.4020    9.1180   15.8850 C   0  0  0  0  0  0
   40.6510   10.4340   15.4720 C   0  0  0  0  0  0
   39.1580    8.4080   15.5020 C   0  0  0  0  0  0
   38.7790    7.9890   13.9150 S   0  0  0  0  0  0
   37.3090    7.2530   14.2410 C   0  0  0  0  0  0
   37.0720    7.3260   15.6110 C   0  0  0  0  0  0
   38.1170    7.9590   16.3330 C   0  0  0  0  0  0
   38.1940    8.0160   18.2550 Br  0  0  0  0  0  0
   36.4280    6.6560   13.2260 C   0  0  0  0  0  0
   35.3300    7.2050   12.9430 O   0  5  0  0  0  0
   36.7930    5.4860   12.5720 O   0  0  0  0  0  0
   35.9020    6.7900   16.1710 O   0  0  0  0  0  0
   35.7110    5.4110   16.4580 C   0  0  0  0  0  0
   34.4570    4.9240   15.8180 C   0  0  0  0  0  0
   33.3390    5.2840   16.2700 O   0  5  0  0  0  0
   34.5190    4.0390   14.7510 O   0  0  0  0  0  0
   42.0480   12.4320   15.3850 N   0  0  0  0  0  0
   41.2290   13.0970   14.3790 C   0  0  0  0  0  0
   41.9840   17.3190   14.3810 C   0  0  0  0  0  0
   40.7910   16.8240   13.8450 C   0  0  0  0  0  0
   40.5430   15.4480   13.8470 C   0  0  0  0  0  0
   41.4870   14.5650   14.3860 C   0  0  0  0  0  0
   42.6800   15.0630   14.9210 C   0  0  0  0  0  0
   42.9280   16.4390   14.9190 C   0  0  0  0  0  0
   43.7321   10.9153   16.8695 H   0  0  0  0  0  0
   43.3189    8.5640   17.5976 H   0  0  0  0  0  0
   41.2031    7.4140   16.9637 H   0  0  0  0  0  0
   39.9007   10.9630   14.8660 H   0  0  0  0  0  0
   36.5648    4.8367   16.0690 H   0  0  0  0  0  0
   35.6350    5.2770   17.5472 H   0  0  0  0  0  0
   42.8224   12.9631   15.8083 H   0  0  0  0  0  0
   41.4734   12.6908   13.3864 H   0  0  0  0  0  0
   40.1680   12.9202   14.6091 H   0  0  0  0  0  0
   42.1799   18.4014   14.3794 H   0  0  0  0  0  0
   40.0483   17.5166   13.4222 H   0  0  0  0  0  0
   39.6050   15.0584   13.4246 H   0  0  0  0  0  0
   43.4236   14.3713   15.3436 H   0  0  0  0  0  0
   43.8660   16.8293   15.3408 H   0  0  0  0  0  0
  1  2  2  0  0  0
  1  6  1  0  0  0
  1 21  1  0  0  0
  2  3  1  0  0  0
  2 29  1  0  0  0
  3  4  2  0  0  0
  3 30  1  0  0  0
  4  5  1  0  0  0
  4 31  1  0  0  0
  5  6  2  0  0  0
  5  7  1  0  0  0
  6 32  1  0  0  0
  7 11  2  0  0  0
  7  8  1  0  0  0
  8  9  1  0  0  0
  9 10  2  0  0  0
  9 13  1  0  0  0
 10 16  1  0  0  0
 10 11  1  0  0  0
 11 12  1  0  0  0
 13 14  1  0  0  0
 13 15  2  0  0  0
 16 17  1  0  0  0
 17 18  1  0  0  0
 17 33  1  0  0  0
 17 34  1  0  0  0
 18 19  1  0  0  0
 18 20  2  0  0  0
 21 22  1  0  0  0
 21 35  1  0  0  0
 22 26  1  0  0  0
 22 36  1  0  0  0
 22 37  1  0  0  0
 23 28  2  0  0  0
 23 24  1  0  0  0
 23 38  1  0  0  0
 24 25  2  0  0  0
 24 39  1  0  0  0
 25 26  1  0  0  0
 25 40  1  0  0  0
 26 27  2  0  0  0
 27 28  1  0  0  0
 27 41  1  0  0  0
 28 42  1  0  0  0
M  CHG  2  14  -1  19  -1
M  END
> <s_m_entry_id>
15

> <s_m_entry_id>
1360

> <MODEL>
1

> <REMARK>
 VINA RESULT:    -7.418      0.000      0.000
 INTER + INTRA:         -11.839
 INTER:                 -10.888
 INTRA:                  -0.952
 UNBOUND:                -0.952
  Name = /scratch/kmzp800/tmptpw0e29h/tmpxybbmnec.pdb
  8 active torsions:
  status: ('A' for Active; 'I' for Inactive)
    1  A    between atoms: C4_4  and  C5_5
    2  A    between atoms: C5_5  and  N1_6
    3  A    between atoms: N1_6  and  C6_7
    4  A    between atoms: C10_11  and  C11_12
    5  A    between atoms: C12_14  and  C13_15
    6  A    between atoms: C14_18  and  O3_19
    7  A    between atoms: O3_19  and  C15_20
    8  A    between atoms: C15_20  and  C16_21
                            x       y       z     vdW  Elec       q    Type
                         _______ _______ _______ _____ _____    ______ ____

> <TORSDO>
F 8

> <grid_id>
ptp1b-prepared

> <grid_path>
ptp1b_vina.pdbqt

> <grid_filename>
ptp1b_vina.pdbqt

> <docking_score>
-7.418

> <compound_name>
lig_20669_2qbr

> <index_string>
14:0:0

> <s_m_Source_Path>
/projects/mai/users/kmzp800_harry/pmx_colab/docking_jobs/ptp1b/vina_prep

> <s_m_Source_File>
ptp1b_confs_vina_naive.sdf

> <i_m_Source_File_Index>
15

> <s_m_Source_Path>
/projects/mai/users/kmzp800_harry/pmx_colab/docking_jobs/ptp1b/vina_prep

> <s_m_Source_File>
ptp1b_vina_naive_confs.sdf

> <i_m_Source_File_Index>
15

$$$$
lig_23485
                    3D
 Schrodinger Suite 2021-4.
 63 66  0  0  1  0            999 V2000
   42.9740   10.0940   17.7630 C   0  0  0  0  0  0
   43.2640   10.4290   19.0890 C   0  0  0  0  0  0
   43.4270   11.7680   19.4550 C   0  0  0  0  0  0
   43.2980   12.7770   18.4960 C   0  0  0  0  0  0
   43.0060   12.4600   17.1620 C   0  0  0  0  0  0
   42.8480   11.1140   16.8100 C   0  0  0  0  0  0
   42.8490   13.5070   16.1250 C   0  0  0  0  0  0
   43.8970   14.8150   15.9370 S   0  0  0  0  0  0
   43.1240   15.5250   14.6250 C   0  0  0  0  0  0
   42.0220   14.7260   14.2920 C   0  0  0  0  0  0
   41.8590   13.6170   15.1410 C   0  0  0  0  0  0
   40.7390   12.6460   14.9570 C   0  0  0  0  0  0
   43.5180   16.8270   14.0600 C   0  0  0  0  0  0
   43.8530   16.9080   12.8500 O   0  0  0  0  0  0
   43.5910   17.9590   14.8610 O   0  5  0  0  0  0
   41.1550   14.9420   13.2120 O   0  0  0  0  0  0
   40.0910   15.8860   13.2340 C   0  0  0  0  0  0
   40.4690   17.1090   12.4710 C   0  0  0  0  0  0
   40.1630   18.2470   12.9150 O   0  5  0  0  0  0
   41.1920   16.9960   11.2920 O   0  0  0  0  0  0
   42.8100    8.7150   17.4050 N   0  0  0  0  0  0
   38.8510    7.7310   16.2940 N   0  0  2  0  0  0
   39.0360    8.1540   17.6940 C   0  0  0  0  0  0
   40.4250    8.7300   18.0100 C   0  0  0  0  0  0
   41.5230    8.0600   17.1790 C   0  0  0  0  0  0
   41.2020    8.0190   15.6780 C   0  0  0  0  0  0
   39.7630    8.4310   15.3890 C   0  0  0  0  0  0
   37.2370    8.1640   15.8310 S   0  0  0  0  0  0
   36.2910    7.0710   16.2450 O   0  0  0  0  0  0
   36.8420    9.4400   16.5200 O   0  0  0  0  0  0
   37.1490    8.3910   14.0590 C   0  0  0  0  0  0
   36.2930    4.6780   12.0930 C   0  0  0  0  0  0
   35.2750    5.6150   12.2900 C   0  0  0  0  0  0
   35.5540    6.8280   12.9290 C   0  0  0  0  0  0
   36.8530    7.1040   13.3700 C   0  0  0  0  0  0
   37.8700    6.1630   13.1770 C   0  0  0  0  0  0
   37.5910    4.9510   12.5370 C   0  0  0  0  0  0
   43.3641    9.6371   19.8458 H   0  0  0  0  0  0
   43.6570   12.0282   20.4987 H   0  0  0  0  0  0
   43.4268   13.8289   18.7907 H   0  0  0  0  0  0
   42.6207   10.8522   15.7661 H   0  0  0  0  0  0
   40.3675   12.3240   15.9410 H   0  0  0  0  0  0
   39.9240   13.1281   14.3972 H   0  0  0  0  0  0
   41.1007   11.7709   14.3972 H   0  0  0  0  0  0
   39.1969   15.4357   12.7781 H   0  0  0  0  0  0
   39.8819   16.1654   14.2772 H   0  0  0  0  0  0
   43.6611    8.1446   17.2994 H   0  0  0  0  0  0
   38.2850    8.9249   17.9216 H   0  0  0  0  0  0
   38.9261    7.2494   18.3101 H   0  0  0  0  0  0
   40.4212    9.8080   17.7913 H   0  0  0  0  0  0
   40.6386    8.5419   19.0725 H   0  0  0  0  0  0
   41.5784    7.0156   17.5198 H   0  0  0  0  0  0
   41.8805    8.7060   15.1511 H   0  0  0  0  0  0
   41.3346    6.9837   15.3309 H   0  0  0  0  0  0
   39.5124    8.1745   14.3491 H   0  0  0  0  0  0
   39.6604    9.5157   15.5406 H   0  0  0  0  0  0
   36.3528    9.1141   13.8281 H   0  0  0  0  0  0
   38.1218    8.7626   13.7046 H   0  0  0  0  0  0
   36.0734    3.7255   11.5886 H   0  0  0  0  0  0
   34.2540    5.3988   11.9425 H   0  0  0  0  0  0
   34.7522    7.5647   13.0847 H   0  0  0  0  0  0
   38.8901    6.3765   13.5289 H   0  0  0  0  0  0
   38.3919    4.2129   12.3829 H   0  0  0  0  0  0
  1  2  2  0  0  0
  1  6  1  0  0  0
  1 21  1  0  0  0
  2  3  1  0  0  0
  2 38  1  0  0  0
  3  4  2  0  0  0
  3 39  1  0  0  0
  4  5  1  0  0  0
  4 40  1  0  0  0
  5  6  2  0  0  0
  5  7  1  0  0  0
  6 41  1  0  0  0
  7  8  1  0  0  0
  7 11  2  0  0  0
  8  9  1  0  0  0
  9 10  2  0  0  0
  9 13  1  0  0  0
 10 11  1  0  0  0
 10 16  1  0  0  0
 11 12  1  0  0  0
 12 42  1  0  0  0
 12 43  1  0  0  0
 12 44  1  0  0  0
 13 15  1  0  0  0
 13 14  2  0  0  0
 16 17  1  0  0  0
 17 18  1  0  0  0
 17 45  1  0  0  0
 17 46  1  0  0  0
 18 19  1  0  0  0
 18 20  2  0  0  0
 21 25  1  0  0  0
 21 47  1  0  0  0
 22 23  1  0  0  0
 22 27  1  0  0  0
 22 28  1  0  0  0
 23 24  1  0  0  0
 23 48  1  0  0  0
 23 49  1  0  0  0
 24 25  1  0  0  0
 24 50  1  0  0  0
 24 51  1  0  0  0
 25 26  1  0  0  0
 25 52  1  0  0  0
 26 27  1  0  0  0
 26 53  1  0  0  0
 26 54  1  0  0  0
 27 55  1  0  0  0
 27 56  1  0  0  0
 28 29  2  0  0  0
 28 30  2  0  0  0
 28 31  1  0  0  0
 31 35  1  0  0  0
 31 57  1  0  0  0
 31 58  1  0  0  0
 32 33  2  0  0  0
 32 37  1  0  0  0
 32 59  1  0  0  0
 33 34  1  0  0  0
 33 60  1  0  0  0
 34 35  2  0  0  0
 34 61  1  0  0  0
 35 36  1  0  0  0
 36 37  2  0  0  0
 36 62  1  0  0  0
 37 63  1  0  0  0
M  CHG  2  15  -1  19  -1
M  END
> <s_m_entry_id>
16

> <s_m_entry_id>
1361

> <MODEL>
1

> <REMARK>
 VINA RESULT:    -8.790      0.000      0.000
 INTER + INTRA:         -15.215
 INTER:                 -13.928
 INTRA:                  -1.287
 UNBOUND:                -1.287
  Name = /scratch/kmzp800/tmpi1gvdi6g/tmpop2tgcln.pdb
  11 active torsions:
  status: ('A' for Active; 'I' for Inactive)
    1  A    between atoms: C4_4  and  C5_5
    2  A    between atoms: C5_5  and  S1_6
    3  A    between atoms: S1_6  and  N1_9
    4  A    between atoms: C8_12  and  N2_13
    5  A    between atoms: N2_13  and  C9_14
    6  A    between atoms: C13_18  and  C14_19
    7  A    between atoms: C15_21  and  C16_22
    8  A    between atoms: C17_25  and  O5_26
    9  A    between atoms: O5_26  and  C18_27
   10  A    between atoms: C18_27  and  C19_28
   11  A    between atoms: C20_31  and  C21_32
                            x       y       z     vdW  Elec       q    Type
                         _______ _______ _______ _____ _____    ______ ____

> <TORSDO>
F 10

> <grid_id>
ptp1b-prepared

> <grid_path>
ptp1b_vina.pdbqt

> <grid_filename>
ptp1b_vina.pdbqt

> <docking_score>
-8.79

> <compound_name>
lig_23485

> <index_string>
15:0:0

> <s_m_Source_Path>
/projects/mai/users/kmzp800_harry/pmx_colab/docking_jobs/ptp1b/vina_prep

> <s_m_Source_File>
ptp1b_confs_vina_naive.sdf

> <i_m_Source_File_Index>
16

> <s_m_Source_Path>
/projects/mai/users/kmzp800_harry/pmx_colab/docking_jobs/ptp1b/vina_prep

> <s_m_Source_File>
ptp1b_vina_naive_confs.sdf

> <i_m_Source_File_Index>
16

$$$$
lig_23474
                    3D
 Schrodinger Suite 2021-4.
 48 50  0  0  1  0            999 V2000
   42.6700    9.2500   16.9990 C   0  0  0  0  0  0
   41.4920    8.5910   16.6400 C   0  0  0  0  0  0
   40.5230    9.2340   15.8570 C   0  0  0  0  0  0
   40.7480   10.5580   15.4550 C   0  0  0  0  0  0
   41.9310   11.2260   15.8100 C   0  0  0  0  0  0
   42.8890   10.5650   16.5830 C   0  0  0  0  0  0
   39.2680    8.5250   15.5140 C   0  0  0  0  0  0
   38.8750    8.0450   13.9480 S   0  0  0  0  0  0
   37.3960    7.3470   14.3150 C   0  0  0  0  0  0
   37.1710    7.4710   15.6830 C   0  0  0  0  0  0
   38.2160    8.1490   16.3670 C   0  0  0  0  0  0
   38.1380    8.6680   18.2180 Br  0  0  0  0  0  0
   36.5080    6.7080   13.3300 C   0  0  0  0  0  0
   35.3870    7.2160   13.0690 O   0  5  0  0  0  0
   36.8950    5.5430   12.6790 O   0  0  0  0  0  0
   35.9970    6.9650   16.2620 O   0  0  0  0  0  0
   35.8470    5.6450   16.7580 C   0  0  0  0  0  0
   34.7500    4.9610   16.0240 C   0  0  0  0  0  0
   33.5510    5.2560   16.2640 O   0  5  0  0  0  0
   35.0480    3.9660   15.1030 O   0  0  0  0  0  0
   42.1720   12.5760   15.4050 N   0  0  0  0  0  0
   41.5580   13.1940   14.2360 C   0  0  0  0  0  0
   41.3040   14.6730   14.4800 C   0  0  0  0  0  0
   42.6380   15.4090   14.5620 C   0  0  0  0  0  0
   42.4040   16.8970   14.8040 C   0  0  0  0  0  0
   41.5490   17.4850   13.6850 C   0  0  0  0  0  0
   40.2150   16.7480   13.6000 C   0  0  0  0  0  0
   40.4520   15.2600   13.3560 C   0  0  0  0  0  0
   43.4252    8.7332   17.6094 H   0  0  0  0  0  0
   41.3228    7.5570   16.9750 H   0  0  0  0  0  0
   39.9886   11.0799   14.8542 H   0  0  0  0  0  0
   43.8183   11.0818   16.8647 H   0  0  0  0  0  0
   36.7860    5.0904   16.6140 H   0  0  0  0  0  0
   35.6034    5.6818   17.8300 H   0  0  0  0  0  0
   42.8168   13.1448   15.9721 H   0  0  0  0  0  0
   42.2305   13.0809   13.3729 H   0  0  0  0  0  0
   40.5961   12.6982   14.0385 H   0  0  0  0  0  0
   40.7596   14.7925   15.4283 H   0  0  0  0  0  0
   43.2313   14.9949   15.3906 H   0  0  0  0  0  0
   43.1783   15.2801   13.6126 H   0  0  0  0  0  0
   41.8869   17.0318   15.7655 H   0  0  0  0  0  0
   43.3745   17.4144   14.8237 H   0  0  0  0  0  0
   41.3638   18.5497   13.8901 H   0  0  0  0  0  0
   42.0823   17.3746   12.7292 H   0  0  0  0  0  0
   39.6663   16.8789   14.5443 H   0  0  0  0  0  0
   39.6285   17.1605   12.7658 H   0  0  0  0  0  0
   40.9736   15.1272   12.3967 H   0  0  0  0  0  0
   39.4827   14.7405   13.3300 H   0  0  0  0  0  0
  1  2  2  0  0  0
  1  6  1  0  0  0
  1 29  1  0  0  0
  2  3  1  0  0  0
  2 30  1  0  0  0
  3  4  2  0  0  0
  3  7  1  0  0  0
  4  5  1  0  0  0
  4 31  1  0  0  0
  5  6  2  0  0  0
  5 21  1  0  0  0
  6 32  1  0  0  0
  7 11  2  0  0  0
  7  8  1  0  0  0
  8  9  1  0  0  0
  9 10  2  0  0  0
  9 13  1  0  0  0
 10 16  1  0  0  0
 10 11  1  0  0  0
 11 12  1  0  0  0
 13 14  1  0  0  0
 13 15  2  0  0  0
 16 17  1  0  0  0
 17 18  1  0  0  0
 17 33  1  0  0  0
 17 34  1  0  0  0
 18 19  1  0  0  0
 18 20  2  0  0  0
 21 22  1  0  0  0
 21 35  1  0  0  0
 22 23  1  0  0  0
 22 36  1  0  0  0
 22 37  1  0  0  0
 23 24  1  0  0  0
 23 28  1  0  0  0
 23 38  1  0  0  0
 24 25  1  0  0  0
 24 39  1  0  0  0
 24 40  1  0  0  0
 25 26  1  0  0  0
 25 41  1  0  0  0
 25 42  1  0  0  0
 26 27  1  0  0  0
 26 43  1  0  0  0
 26 44  1  0  0  0
 27 28  1  0  0  0
 27 45  1  0  0  0
 27 46  1  0  0  0
 28 47  1  0  0  0
 28 48  1  0  0  0
M  CHG  2  14  -1  19  -1
M  END
> <s_m_entry_id>
17

> <s_m_entry_id>
1362

> <MODEL>
1

> <REMARK>
 VINA RESULT:    -7.194      0.000      0.000
 INTER + INTRA:         -11.565
 INTER:                 -10.558
 INTRA:                  -1.007
 UNBOUND:                -1.007
  Name = /scratch/kmzp800/tmptemoyhy5/tmpype_k4o9.pdb
  8 active torsions:
  status: ('A' for Active; 'I' for Inactive)
    1  A    between atoms: C3_3  and  C4_4
    2  A    between atoms: C5_6  and  C6_7
    3  A    between atoms: C7_10  and  O3_11
    4  A    between atoms: O3_11  and  C8_12
    5  A    between atoms: C8_12  and  C9_13
    6  A    between atoms: C12_19  and  N1_20
    7  A    between atoms: N1_20  and  C13_21
    8  A    between atoms: C13_21  and  C14_22
                            x       y       z     vdW  Elec       q    Type
                         _______ _______ _______ _____ _____    ______ ____

> <TORSDO>
F 8

> <grid_id>
ptp1b-prepared

> <grid_path>
ptp1b_vina.pdbqt

> <grid_filename>
ptp1b_vina.pdbqt

> <docking_score>
-7.194

> <compound_name>
lig_23474

> <index_string>
16:0:0

> <s_m_Source_Path>
/projects/mai/users/kmzp800_harry/pmx_colab/docking_jobs/ptp1b/vina_prep

> <s_m_Source_File>
ptp1b_confs_vina_naive.sdf

> <i_m_Source_File_Index>
17

> <s_m_Source_Path>
/projects/mai/users/kmzp800_harry/pmx_colab/docking_jobs/ptp1b/vina_prep

> <s_m_Source_File>
ptp1b_vina_naive_confs.sdf

> <i_m_Source_File_Index>
17

$$$$
lig_20667_2qbp
                    3D
 Schrodinger Suite 2021-4.
 60 63  0  0  1  0            999 V2000
   41.3600    9.8510   18.6240 C   0  0  0  0  0  0
   42.2410    8.8150   18.3040 C   0  0  0  0  0  0
   43.2490    9.0170   17.3580 C   0  0  0  0  0  0
   43.3810   10.2590   16.7300 C   0  0  0  0  0  0
   42.5070   11.3090   17.0370 C   0  0  0  0  0  0
   41.5020   11.0940   17.9890 C   0  0  0  0  0  0
   42.6440   12.6460   16.4160 C   0  0  0  0  0  0
   43.6260   13.8700   17.0300 S   0  0  0  0  0  0
   43.2980   15.0210   15.8520 C   0  0  0  0  0  0
   42.4060   14.4510   14.9320 C   0  0  0  0  0  0
   42.0270   13.1370   15.2560 C   0  0  0  0  0  0
   40.7730   12.1720   14.1720 Br  0  0  0  0  0  0
   43.7980   16.4040   15.9090 C   0  0  0  0  0  0
   44.9830   16.6260   16.2690 O   0  5  0  0  0  0
   42.9600   17.4760   15.6310 O   0  0  0  0  0  0
   41.9290   15.0710   13.7700 O   0  0  0  0  0  0
   40.6800   15.7470   13.6940 C   0  0  0  0  0  0
   40.8090   16.9830   12.8730 C   0  0  0  0  0  0
   41.9410   17.3520   12.4660 O   0  0  0  0  0  0
   39.6770   17.7050   12.5230 O   0  5  0  0  0  0
   40.3280    9.6230   19.5950 N   0  0  0  0  0  0
   37.2700    7.2060   17.9310 N   0  0  2  0  0  0
   37.1840    8.6530   17.6520 C   0  0  0  0  0  0
   38.4380    9.4550   18.0260 C   0  0  0  0  0  0
   39.0610    8.9480   19.3290 C   0  0  0  0  0  0
   39.2540    7.4250   19.3530 C   0  0  0  0  0  0
   38.6500    6.7560   18.1230 C   0  0  0  0  0  0
   36.6500    6.3700   16.5440 S   0  0  0  0  0  0
   37.4600    5.1250   16.3120 O   0  0  0  0  0  0
   35.2180    5.9840   16.7880 O   0  0  0  0  0  0
   36.7430    7.4250   15.1050 C   0  0  0  0  0  0
   40.3530    6.7200   12.9030 C   0  0  0  0  0  0
   40.3570    7.6000   13.9900 C   0  0  0  0  0  0
   39.1790    7.8290   14.7080 C   0  0  0  0  0  0
   37.9960    7.1800   14.3390 C   0  0  0  0  0  0
   37.9930    6.2980   13.2530 C   0  0  0  0  0  0
   39.1710    6.0690   12.5350 C   0  0  0  0  0  0
   42.1407    7.8375   18.7983 H   0  0  0  0  0  0
   43.9393    8.1982   17.1071 H   0  0  0  0  0  0
   44.1785   10.4127   15.9881 H   0  0  0  0  0  0
   40.8130   11.9131   18.2428 H   0  0  0  0  0  0
   39.9350   15.0817   13.2332 H   0  0  0  0  0  0
   40.3614   16.0243   14.7097 H   0  0  0  0  0  0
   40.4940    9.9617   20.5535 H   0  0  0  0  0  0
   37.0024    8.7839   16.5750 H   0  0  0  0  0  0
   36.3685    9.0419   18.2794 H   0  0  0  0  0  0
   39.1768    9.3611   17.2165 H   0  0  0  0  0  0
   38.1453   10.5056   18.1696 H   0  0  0  0  0  0
   38.3443    9.1904   20.1275 H   0  0  0  0  0  0
   40.3310    7.2035   19.3856 H   0  0  0  0  0  0
   38.7409    7.0303   20.2424 H   0  0  0  0  0  0
   38.6608    5.6647   18.2604 H   0  0  0  0  0  0
   39.2435    7.0281   17.2377 H   0  0  0  0  0  0
   35.8793    7.2222   14.4548 H   0  0  0  0  0  0
   36.7382    8.4728   15.4399 H   0  0  0  0  0  0
   41.2792    6.5399   12.3376 H   0  0  0  0  0  0
   41.2864    8.1118   14.2801 H   0  0  0  0  0  0
   39.1827    8.5201   15.5638 H   0  0  0  0  0  0
   37.0641    5.7847   12.9639 H   0  0  0  0  0  0
   39.1680    5.3765   11.6803 H   0  0  0  0  0  0
  1 21  1  0  0  0
  1  2  2  0  0  0
  1  6  1  0  0  0
  2  3  1  0  0  0
  2 38  1  0  0  0
  3  4  2  0  0  0
  3 39  1  0  0  0
  4  5  1  0  0  0
  4 40  1  0  0  0
  5  6  2  0  0  0
  5  7  1  0  0  0
  6 41  1  0  0  0
  7  8  1  0  0  0
  7 11  2  0  0  0
  8  9  1  0  0  0
  9 13  1  0  0  0
  9 10  2  0  0  0
 10 11  1  0  0  0
 10 16  1  0  0  0
 11 12  1  0  0  0
 13 14  1  0  0  0
 13 15  2  0  0  0
 16 17  1  0  0  0
 17 18  1  0  0  0
 17 42  1  0  0  0
 17 43  1  0  0  0
 18 19  2  0  0  0
 18 20  1  0  0  0
 21 25  1  0  0  0
 21 44  1  0  0  0
 22 27  1  0  0  0
 22 23  1  0  0  0
 22 28  1  0  0  0
 23 24  1  0  0  0
 23 45  1  0  0  0
 23 46  1  0  0  0
 24 25  1  0  0  0
 24 47  1  0  0  0
 24 48  1  0  0  0
 25 26  1  0  0  0
 25 49  1  0  0  0
 26 27  1  0  0  0
 26 50  1  0  0  0
 26 51  1  0  0  0
 27 52  1  0  0  0
 27 53  1  0  0  0
 28 30  2  0  0  0
 28 29  2  0  0  0
 28 31  1  0  0  0
 31 35  1  0  0  0
 31 54  1  0  0  0
 31 55  1  0  0  0
 32 33  2  0  0  0
 32 37  1  0  0  0
 32 56  1  0  0  0
 33 34  1  0  0  0
 33 57  1  0  0  0
 34 35  2  0  0  0
 34 58  1  0  0  0
 35 36  1  0  0  0
 36 37  2  0  0  0
 36 59  1  0  0  0
 37 60  1  0  0  0
M  CHG  2  14  -1  20  -1
M  END
> <s_m_entry_id>
18

> <s_m_entry_id>
1363

> <MODEL>
1

> <REMARK>
 VINA RESULT:    -7.160      0.000      0.000
 INTER + INTRA:         -13.299
 INTER:                 -11.346
 INTRA:                  -1.953
 UNBOUND:                -1.953
  Name = /scratch/kmzp800/tmpf21cdblc/tmp2m6g6ql5.pdb
  10 active torsions:
  status: ('A' for Active; 'I' for Inactive)
    1  A    between atoms: C4_4  and  C5_5
    2  A    between atoms: C5_5  and  S1_6
    3  A    between atoms: S1_6  and  N1_9
    4  A    between atoms: C8_12  and  N2_13
    5  A    between atoms: N2_13  and  C9_14
    6  A    between atoms: C13_18  and  C14_19
    7  A    between atoms: C15_21  and  C16_22
    8  A    between atoms: C17_25  and  O5_26
    9  A    between atoms: O5_26  and  C18_27
   10  A    between atoms: C18_27  and  C19_28
                            x       y       z     vdW  Elec       q    Type
                         _______ _______ _______ _____ _____    ______ ____

> <TORSDO>
F 10

> <grid_id>
ptp1b-prepared

> <grid_path>
ptp1b_vina.pdbqt

> <grid_filename>
ptp1b_vina.pdbqt

> <docking_score>
-7.16

> <compound_name>
lig_20667_2qbp

> <index_string>
17:0:0

> <s_m_Source_Path>
/projects/mai/users/kmzp800_harry/pmx_colab/docking_jobs/ptp1b/vina_prep

> <s_m_Source_File>
ptp1b_confs_vina_naive.sdf

> <i_m_Source_File_Index>
18

> <s_m_Source_Path>
/projects/mai/users/kmzp800_harry/pmx_colab/docking_jobs/ptp1b/vina_prep

> <s_m_Source_File>
ptp1b_vina_naive_confs.sdf

> <i_m_Source_File_Index>
18

$$$$
lig_23468
                    3D
 Schrodinger Suite 2021-4.
 37 38  0  0  1  0            999 V2000
   42.4240   12.8610   15.6680 C   0  0  0  0  0  0
   43.4970   13.7550   16.6120 S   0  0  0  0  0  0
   43.3610   15.2090   15.7830 C   0  0  0  0  0  0
   42.4730   15.0110   14.7180 C   0  0  0  0  0  0
   41.9340   13.7130   14.6650 C   0  0  0  0  0  0
   40.7020   13.2200   13.2790 Br  0  0  0  0  0  0
   40.6030    9.5260   15.7600 C   0  0  0  0  0  0
   40.8850   10.8710   15.5130 C   0  0  0  0  0  0
   42.1030   11.4340   15.9150 C   0  0  0  0  0  0
   43.0340   10.6190   16.5740 C   0  0  0  0  0  0
   42.7630    9.2670   16.8290 C   0  0  0  0  0  0
   41.5420    8.7270   16.4170 C   0  0  0  0  0  0
   43.7040    8.4180   17.5010 N   0  0  0  0  0  0
   44.2580    8.6180   18.8070 C   0  0  0  0  0  0
   43.9290    9.6080   19.5120 O   0  0  0  0  0  0
   45.2160    7.6200   19.3530 C   0  0  0  0  0  0
   46.3620    8.3290   20.0450 C   0  0  0  0  0  0
   43.9860   16.4630   16.2340 C   0  0  0  0  0  0
   44.5560   16.5090   17.3560 O   0  5  0  0  0  0
   43.8970   17.6200   15.4720 O   0  0  0  0  0  0
   42.1410   15.9660   13.7490 O   0  0  0  0  0  0
   41.1370   16.9570   13.9360 C   0  0  0  0  0  0
   40.3810   17.1710   12.6700 C   0  0  0  0  0  0
   40.9920   17.2120   11.5710 O   0  0  0  0  0  0
   38.9980   17.2890   12.6980 O   0  5  0  0  0  0
   39.6431    9.0962   15.4378 H   0  0  0  0  0  0
   40.1417   11.4960   14.9965 H   0  0  0  0  0  0
   43.9942   11.0477   16.8968 H   0  0  0  0  0  0
   41.3189    7.6675   16.6109 H   0  0  0  0  0  0
   44.0133    7.5777   16.9919 H   0  0  0  0  0  0
   44.6968    6.9741   20.0764 H   0  0  0  0  0  0
   45.6131    7.0106   18.5278 H   0  0  0  0  0  0
   46.2365    8.2514   21.1351 H   0  0  0  0  0  0
   47.3134    7.8614   19.7512 H   0  0  0  0  0  0
   46.3683    9.3890   19.7512 H   0  0  0  0  0  0
   40.4424   16.6263   14.7222 H   0  0  0  0  0  0
   41.6168   17.9019   14.2309 H   0  0  0  0  0  0
  1  9  1  0  0  0
  1  2  1  0  0  0
  1  5  2  0  0  0
  2  3  1  0  0  0
  3 18  1  0  0  0
  3  4  2  0  0  0
  4  5  1  0  0  0
  4 21  1  0  0  0
  5  6  1  0  0  0
  7 12  2  0  0  0
  7  8  1  0  0  0
  7 26  1  0  0  0
  8  9  2  0  0  0
  8 27  1  0  0  0
  9 10  1  0  0  0
 10 11  2  0  0  0
 10 28  1  0  0  0
 11 13  1  0  0  0
 11 12  1  0  0  0
 12 29  1  0  0  0
 13 14  1  0  0  0
 13 30  1  0  0  0
 14 16  1  0  0  0
 14 15  2  0  0  0
 16 17  1  0  0  0
 16 31  1  0  0  0
 16 32  1  0  0  0
 17 33  1  0  0  0
 17 34  1  0  0  0
 17 35  1  0  0  0
 18 19  1  0  0  0
 18 20  2  0  0  0
 21 22  1  0  0  0
 22 23  1  0  0  0
 22 36  1  0  0  0
 22 37  1  0  0  0
 23 25  1  0  0  0
 23 24  2  0  0  0
M  CHG  2  19  -1  25  -1
M  END
> <s_m_entry_id>
19

> <s_m_entry_id>
1364

> <MODEL>
1

> <REMARK>
 VINA RESULT:    -7.409      0.000      0.000
 INTER + INTRA:         -10.526
 INTER:                 -10.441
 INTRA:                  -0.084
 UNBOUND:                -0.084
  Name = /scratch/kmzp800/tmp2tbdfea3/tmps4i16jvs.pdb
  8 active torsions:
  status: ('A' for Active; 'I' for Inactive)
    1  A    between atoms: C3_3  and  C4_4
    2  A    between atoms: C5_6  and  C6_7
    3  A    between atoms: C7_10  and  O3_11
    4  A    between atoms: O3_11  and  C8_12
    5  A    between atoms: C8_12  and  C9_13
    6  A    between atoms: C12_19  and  N1_20
    7  A    between atoms: C13_21  and  C14_23
    8  A    between atoms: C14_23  and  C15_24
                            x       y       z     vdW  Elec       q    Type
                         _______ _______ _______ _____ _____    ______ ____

> <TORSDO>
F 7

> <grid_id>
ptp1b-prepared

> <grid_path>
ptp1b_vina.pdbqt

> <grid_filename>
ptp1b_vina.pdbqt

> <docking_score>
-7.409

> <compound_name>
lig_23468

> <index_string>
18:0:0

> <s_m_Source_Path>
/projects/mai/users/kmzp800_harry/pmx_colab/docking_jobs/ptp1b/vina_prep

> <s_m_Source_File>
ptp1b_confs_vina_naive.sdf

> <i_m_Source_File_Index>
19

> <s_m_Source_Path>
/projects/mai/users/kmzp800_harry/pmx_colab/docking_jobs/ptp1b/vina_prep

> <s_m_Source_File>
ptp1b_vina_naive_confs.sdf

> <i_m_Source_File_Index>
19

$$$$
lig_23330_2qbq
                    3D
 Schrodinger Suite 2021-4.
 57 59  0  0  1  0            999 V2000
   40.6960    9.5170   15.8640 C   0  0  0  0  0  0
   40.9490   10.8640   15.5920 C   0  0  0  0  0  0
   42.1370   11.4670   16.0270 C   0  0  0  0  0  0
   43.0800   10.6940   16.7200 C   0  0  0  0  0  0
   42.8330    9.3410   16.9950 C   0  0  0  0  0  0
   41.6360    8.7590   16.5660 C   0  0  0  0  0  0
   42.3910   12.8890   15.7130 C   0  0  0  0  0  0
   43.3940   13.8910   16.6220 S   0  0  0  0  0  0
   43.1960   15.2830   15.7000 C   0  0  0  0  0  0
   42.3160   14.9800   14.6520 C   0  0  0  0  0  0
   41.8870   13.6420   14.6460 C   0  0  0  0  0  0
   40.7630   12.9610   13.2510 Br  0  0  0  0  0  0
   43.9570   16.5210   15.9290 C   0  0  0  0  0  0
   44.8500   16.5520   16.8160 O   0  5  0  0  0  0
   43.7520   17.6420   15.1340 O   0  0  0  0  0  0
   41.8560   15.8870   13.6890 O   0  0  0  0  0  0
   40.7100   16.7090   13.8720 C   0  0  0  0  0  0
   40.3110   17.3330   12.5800 C   0  0  0  0  0  0
   39.2240   17.9610   12.4950 O   0  5  0  0  0  0
   41.1580   17.2600   11.4830 O   0  0  0  0  0  0
   43.7870    8.5310   17.6880 N   0  0  0  0  0  0
   44.5460    8.9730   18.8490 C   0  0  0  0  0  0
   43.6160    9.6320   19.8650 C   0  0  0  0  0  0
   44.3740   10.0940   21.1130 C   0  0  0  0  0  0
   45.2760   11.2720   20.7850 C   0  0  0  0  0  0
   43.3590   10.5550   22.1360 C   0  0  0  0  0  0
   45.1840    8.9420   21.7260 C   0  0  0  0  0  0
   46.0380    8.1510   20.7230 C   0  0  0  0  0  0
   46.5010    6.8780   21.3990 C   0  0  0  0  0  0
   47.2740    8.9390   20.3190 C   0  0  0  0  0  0
   45.2250    7.7650   19.4860 C   0  0  0  0  0  0
   39.7574    9.0539   15.5256 H   0  0  0  0  0  0
   40.2099   11.4558   15.0320 H   0  0  0  0  0  0
   44.0229   11.1535   17.0512 H   0  0  0  0  0  0
   41.4338    7.6996   16.7823 H   0  0  0  0  0  0
   39.8795   16.0950   14.2504 H   0  0  0  0  0  0
   40.9504   17.5031   14.5942 H   0  0  0  0  0  0
   43.9472    7.5736   17.3434 H   0  0  0  0  0  0
   45.3028    9.7064   18.5336 H   0  0  0  0  0  0
   43.1369   10.5041   19.3961 H   0  0  0  0  0  0
   42.8667    8.8889   20.1753 H   0  0  0  0  0  0
   45.6298   11.7340   21.7185 H   0  0  0  0  0  0
   46.1387   10.9214   20.1995 H   0  0  0  0  0  0
   44.7125   12.0134   20.1995 H   0  0  0  0  0  0
   43.7515   10.3767   23.1480 H   0  0  0  0  0  0
   43.1652   11.6295   22.0019 H   0  0  0  0  0  0
   42.4224    9.9940   22.0019 H   0  0  0  0  0  0
   45.8547    9.3633   22.4893 H   0  0  0  0  0  0
   44.4512    8.2320   22.1370 H   0  0  0  0  0  0
   46.4549    7.0049   22.4907 H   0  0  0  0  0  0
   45.8482    6.0451   21.0988 H   0  0  0  0  0  0
   47.5363    6.6591   21.0988 H   0  0  0  0  0  0
   47.8044    9.2772   21.2214 H   0  0  0  0  0  0
   47.9387    8.2976   19.7217 H   0  0  0  0  0  0
   46.9731    9.8123   19.7217 H   0  0  0  0  0  0
   44.4536    7.0383   19.7806 H   0  0  0  0  0  0
   45.9157    7.3341   18.7462 H   0  0  0  0  0  0
  1  6  2  0  0  0
  1  2  1  0  0  0
  1 32  1  0  0  0
  2  3  2  0  0  0
  2 33  1  0  0  0
  3  4  1  0  0  0
  3  7  1  0  0  0
  4  5  2  0  0  0
  4 34  1  0  0  0
  5 21  1  0  0  0
  5  6  1  0  0  0
  6 35  1  0  0  0
  7  8  1  0  0  0
  7 11  2  0  0  0
  8  9  1  0  0  0
  9 13  1  0  0  0
  9 10  2  0  0  0
 10 11  1  0  0  0
 10 16  1  0  0  0
 11 12  1  0  0  0
 13 14  1  0  0  0
 13 15  2  0  0  0
 16 17  1  0  0  0
 17 18  1  0  0  0
 17 36  1  0  0  0
 17 37  1  0  0  0
 18 19  1  0  0  0
 18 20  2  0  0  0
 21 22  1  0  0  0
 21 38  1  0  0  0
 22 31  1  0  0  0
 22 23  1  0  0  0
 22 39  1  0  0  0
 23 24  1  0  0  0
 23 40  1  0  0  0
 23 41  1  0  0  0
 24 27  1  0  0  0
 24 26  1  0  0  0
 24 25  1  0  0  0
 25 42  1  0  0  0
 25 43  1  0  0  0
 25 44  1  0  0  0
 26 45  1  0  0  0
 26 46  1  0  0  0
 26 47  1  0  0  0
 27 28  1  0  0  0
 27 48  1  0  0  0
 27 49  1  0  0  0
 28 29  1  0  0  0
 28 30  1  0  0  0
 28 31  1  0  0  0
 29 50  1  0  0  0
 29 51  1  0  0  0
 29 52  1  0  0  0
 30 53  1  0  0  0
 30 54  1  0  0  0
 30 55  1  0  0  0
 31 56  1  0  0  0
 31 57  1  0  0  0
M  CHG  2  14  -1  19  -1
M  END
> <s_m_entry_id>
20

> <s_m_entry_id>
1365

> <MODEL>
1

> <REMARK>
 VINA RESULT:    -8.143      0.000      0.000
 INTER + INTRA:         -11.888
 INTER:                 -11.475
 INTRA:                  -0.413
 UNBOUND:                -0.413
  Name = /scratch/kmzp800/tmpgn7njy5n/tmpzm9jll74.pdb
  11 active torsions:
  status: ('A' for Active; 'I' for Inactive)
    1  A    between atoms: C3_3  and  C4_4
    2  A    between atoms: C5_6  and  C6_7
    3  A    between atoms: C7_10  and  O3_11
    4  A    between atoms: O3_11  and  C8_12
    5  A    between atoms: C8_12  and  C9_13
    6  A    between atoms: C12_19  and  N1_20
    7  A    between atoms: N1_20  and  C13_21
    8  A    between atoms: C15_23  and  C16_24
    9  A    between atoms: C15_23  and  C17_25
   10  A    between atoms: C19_27  and  C20_28
   11  A    between atoms: C19_27  and  C21_29
                            x       y       z     vdW  Elec       q    Type
                         _______ _______ _______ _____ _____    ______ ____

> <TORSDO>
F 7

> <grid_id>
ptp1b-prepared

> <grid_path>
ptp1b_vina.pdbqt

> <grid_filename>
ptp1b_vina.pdbqt

> <docking_score>
-8.143

> <compound_name>
lig_23330_2qbq

> <index_string>
19:0:0

> <s_m_Source_Path>
/projects/mai/users/kmzp800_harry/pmx_colab/docking_jobs/ptp1b/vina_prep

> <s_m_Source_File>
ptp1b_confs_vina_naive.sdf

> <i_m_Source_File_Index>
20

> <s_m_Source_Path>
/projects/mai/users/kmzp800_harry/pmx_colab/docking_jobs/ptp1b/vina_prep

> <s_m_Source_File>
ptp1b_vina_naive_confs.sdf

> <i_m_Source_File_Index>
20

$$$$
lig_23484
                    3D
 Schrodinger Suite 2021-4.
 60 63  0  0  1  0            999 V2000
   40.9190    9.5230   17.0420 C   0  0  0  0  0  0
   42.1180    8.9360   17.4550 C   0  0  0  0  0  0
   43.3330    9.5930   17.2420 C   0  0  0  0  0  0
   43.3520   10.8420   16.6140 C   0  0  0  0  0  0
   42.1570   11.4410   16.1920 C   0  0  0  0  0  0
   40.9440   10.7740   16.4100 C   0  0  0  0  0  0
   42.1740   12.7580   15.5310 C   0  0  0  0  0  0
   43.3500   13.9470   15.7440 S   0  0  0  0  0  0
   42.6690   15.0670   14.6930 C   0  0  0  0  0  0
   41.5050   14.5170   14.1600 C   0  0  0  0  0  0
   41.2230   13.2210   14.6270 C   0  0  0  0  0  0
   43.2300   16.3950   14.4040 C   0  0  0  0  0  0
   43.2780   17.2800   15.2980 O   0  5  0  0  0  0
   43.7140   16.6820   13.1340 O   0  0  0  0  0  0
   40.7000   15.2000   13.2440 O   0  0  0  0  0  0
   39.9830   16.3750   13.5940 C   0  0  0  0  0  0
   40.1020   17.3730   12.4980 C   0  0  0  0  0  0
   39.3520   18.3830   12.4850 O   0  5  0  0  0  0
   41.0680   17.2120   11.5140 O   0  0  0  0  0  0
   39.6880    8.8310   17.2710 N   0  0  0  0  0  0
   37.3750    6.8230   17.2930 N   0  0  1  0  0  0
   36.8410    7.5760   18.4250 C   0  0  0  0  0  0
   37.8170    8.6810   18.8410 C   0  0  0  0  0  0
   39.2820    8.3120   18.5720 C   0  0  0  0  0  0
   39.4970    6.7950   18.6360 C   0  0  0  0  0  0
   38.5260    6.0210   17.7260 C   0  0  0  0  0  0
   36.1350    5.7440   16.7290 S   0  0  0  0  0  0
   36.5500    4.3330   17.0320 O   0  0  0  0  0  0
   34.8480    6.0310   17.4530 O   0  0  0  0  0  0
   35.8670    5.8800   14.9630 C   0  0  0  0  0  0
   39.5480    6.5050   12.8510 C   0  0  0  0  0  0
   38.7830    7.6030   13.2570 C   0  0  0  0  0  0
   37.5800    7.4020   13.9420 C   0  0  0  0  0  0
   37.1420    6.1030   14.2230 C   0  0  0  0  0  0
   37.9070    5.0050   13.8110 C   0  0  0  0  0  0
   39.1100    5.2070   13.1280 C   0  0  0  0  0  0
   42.1055    7.9535   17.9494 H   0  0  0  0  0  0
   44.2746    9.1273   17.5685 H   0  0  0  0  0  0
   44.3099   11.3574   16.4502 H   0  0  0  0  0  0
   40.0017   11.2369   16.0818 H   0  0  0  0  0  0
   40.3459   12.6367   14.3119 H   0  0  0  0  0  0
   38.9230   16.1253   13.7490 H   0  0  0  0  0  0
   40.3996   16.7965   14.5207 H   0  0  0  0  0  0
   39.0529    8.6915   16.4722 H   0  0  0  0  0  0
   35.8811    8.0299   18.1377 H   0  0  0  0  0  0
   36.6968    6.8902   19.2729 H   0  0  0  0  0  0
   37.5753    9.5941   18.2773 H   0  0  0  0  0  0
   37.7065    8.8299   19.9253 H   0  0  0  0  0  0
   39.9045    8.7682   19.3558 H   0  0  0  0  0  0
   40.5275    6.5716   18.3226 H   0  0  0  0  0  0
   39.3098    6.4752   19.6717 H   0  0  0  0  0  0
   38.1539    5.1447   18.2770 H   0  0  0  0  0  0
   39.0834    5.7348   16.8219 H   0  0  0  0  0  0
   35.4035    4.9504   14.6010 H   0  0  0  0  0  0
   35.2124    6.7455   14.7831 H   0  0  0  0  0  0
   40.4947    6.6629   12.3135 H   0  0  0  0  0  0
   39.1272    8.6245   13.0378 H   0  0  0  0  0  0
   36.9778    8.2658   14.2600 H   0  0  0  0  0  0
   37.5612    3.9829   14.0249 H   0  0  0  0  0  0
   39.7122    4.3438   12.8084 H   0  0  0  0  0  0
  1 20  1  0  0  0
  1  2  2  0  0  0
  1  6  1  0  0  0
  2  3  1  0  0  0
  2 37  1  0  0  0
  3  4  2  0  0  0
  3 38  1  0  0  0
  4  5  1  0  0  0
  4 39  1  0  0  0
  5  6  2  0  0  0
  5  7  1  0  0  0
  6 40  1  0  0  0
  7  8  1  0  0  0
  7 11  2  0  0  0
  8  9  1  0  0  0
  9 10  2  0  0  0
  9 12  1  0  0  0
 10 11  1  0  0  0
 10 15  1  0  0  0
 11 41  1  0  0  0
 12 13  1  0  0  0
 12 14  2  0  0  0
 15 16  1  0  0  0
 16 17  1  0  0  0
 16 42  1  0  0  0
 16 43  1  0  0  0
 17 18  1  0  0  0
 17 19  2  0  0  0
 20 24  1  0  0  0
 20 44  1  0  0  0
 21 26  1  0  0  0
 21 22  1  0  0  0
 21 27  1  0  0  0
 22 23  1  0  0  0
 22 45  1  0  0  0
 22 46  1  0  0  0
 23 24  1  0  0  0
 23 47  1  0  0  0
 23 48  1  0  0  0
 24 25  1  0  0  0
 24 49  1  0  0  0
 25 26  1  0  0  0
 25 50  1  0  0  0
 25 51  1  0  0  0
 26 52  1  0  0  0
 26 53  1  0  0  0
 27 28  2  0  0  0
 27 29  2  0  0  0
 27 30  1  0  0  0
 30 34  1  0  0  0
 30 54  1  0  0  0
 30 55  1  0  0  0
 31 36  2  0  0  0
 31 32  1  0  0  0
 31 56  1  0  0  0
 32 33  2  0  0  0
 32 57  1  0  0  0
 33 34  1  0  0  0
 33 58  1  0  0  0
 34 35  2  0  0  0
 35 36  1  0  0  0
 35 59  1  0  0  0
 36 60  1  0  0  0
M  CHG  2  13  -1  18  -1
M  END
> <s_m_entry_id>
21

> <s_m_entry_id>
1366

> <MODEL>
1

> <REMARK>
 VINA RESULT:    -8.450      0.000      0.000
 INTER + INTRA:         -14.711
 INTER:                 -13.389
 INTRA:                  -1.321
 UNBOUND:                -1.321
  Name = /scratch/kmzp800/tmp5i5ruh49/tmpooq5kddz.pdb
  10 active torsions:
  status: ('A' for Active; 'I' for Inactive)
    1  A    between atoms: C4_4  and  C5_5
    2  A    between atoms: C5_5  and  S1_6
    3  A    between atoms: S1_6  and  N1_9
    4  A    between atoms: C8_12  and  N2_13
    5  A    between atoms: N2_13  and  C9_14
    6  A    between atoms: C13_18  and  C14_19
    7  A    between atoms: C15_21  and  C16_22
    8  A    between atoms: C17_25  and  O5_26
    9  A    between atoms: O5_26  and  C18_27
   10  A    between atoms: C18_27  and  C19_28
                            x       y       z     vdW  Elec       q    Type
                         _______ _______ _______ _____ _____    ______ ____

> <TORSDO>
F 10

> <grid_id>
ptp1b-prepared

> <grid_path>
ptp1b_vina.pdbqt

> <grid_filename>
ptp1b_vina.pdbqt

> <docking_score>
-8.45

> <compound_name>
lig_23484

> <index_string>
20:0:0

> <s_m_Source_Path>
/projects/mai/users/kmzp800_harry/pmx_colab/docking_jobs/ptp1b/vina_prep

> <s_m_Source_File>
ptp1b_confs_vina_naive.sdf

> <i_m_Source_File_Index>
21

> <s_m_Source_Path>
/projects/mai/users/kmzp800_harry/pmx_colab/docking_jobs/ptp1b/vina_prep

> <s_m_Source_File>
ptp1b_vina_naive_confs.sdf

> <i_m_Source_File_Index>
21

$$$$
lig_20670_2qbs
                    3D
 Schrodinger Suite 2021-4.
 45 47  0  0  1  0            999 V2000
   43.2690   10.2680   16.7860 C   0  0  0  0  0  0
   42.0850    9.5440   16.6300 C   0  0  0  0  0  0
   40.9040   10.1830   16.2290 C   0  0  0  0  0  0
   40.9360   11.5610   15.9700 C   0  0  0  0  0  0
   42.1220   12.2950   16.1220 C   0  0  0  0  0  0
   43.2870   11.6420   16.5340 C   0  0  0  0  0  0
   39.6420    9.4320   16.0310 C   0  0  0  0  0  0
   39.2500    8.6380   14.5980 S   0  0  0  0  0  0
   37.7570    8.0530   15.0880 C   0  0  0  0  0  0
   37.5300    8.4600   16.4000 C   0  0  0  0  0  0
   38.5790    9.2540   16.9340 C   0  0  0  0  0  0
   38.4680   10.1530   18.6320 Br  0  0  0  0  0  0
   36.8660    7.2310   14.2550 C   0  0  0  0  0  0
   35.9060    7.7670   13.6410 O   0  0  0  0  0  0
   37.0700    5.8620   14.1360 O   0  5  0  0  0  0
   36.3520    8.1080   17.0720 O   0  0  0  0  0  0
   36.2700    7.0960   18.0680 C   0  0  0  0  0  0
   35.9100    5.7910   17.4450 C   0  0  0  0  0  0
   34.8180    5.6680   16.8310 O   0  0  0  0  0  0
   36.7970    4.7260   17.5020 O   0  5  0  0  0  0
   42.1620   13.7020   15.8670 N   0  0  0  0  0  0
   42.4140   14.2760   14.5530 C   0  0  0  0  0  0
   41.0810   14.5030   13.8240 C   0  0  0  0  0  0
   40.5830   15.9380   13.9920 C   0  0  0  0  0  0
   41.5830   16.9460   13.4090 C   0  0  0  0  0  0
   43.0450   16.4870   13.5050 C   0  0  0  0  0  0
   43.2580   15.5550   14.6930 C   0  0  0  0  0  0
   44.1880    9.7561   17.1075 H   0  0  0  0  0  0
   42.0794    8.4612   16.8238 H   0  0  0  0  0  0
   40.0190   12.0732   15.6433 H   0  0  0  0  0  0
   44.2199   12.2110   16.6601 H   0  0  0  0  0  0
   37.2432    7.0022   18.5721 H   0  0  0  0  0  0
   35.4949    7.3719   18.7981 H   0  0  0  0  0  0
   42.0038   14.3444   16.6565 H   0  0  0  0  0  0
   43.0002   13.5799   13.9351 H   0  0  0  0  0  0
   41.2210   14.2972   12.7525 H   0  0  0  0  0  0
   40.3316   13.8263   14.2604 H   0  0  0  0  0  0
   39.6199   16.0465   13.4717 H   0  0  0  0  0  0
   40.4693   16.1430   15.0667 H   0  0  0  0  0  0
   41.3376   17.1058   12.3487 H   0  0  0  0  0  0
   41.4947   17.8680   14.0024 H   0  0  0  0  0  0
   43.3149   15.9558   12.5803 H   0  0  0  0  0  0
   43.6787   17.3754   13.6436 H   0  0  0  0  0  0
   42.9674   16.0778   15.6162 H   0  0  0  0  0  0
   44.3200   15.2704   14.7273 H   0  0  0  0  0  0
  1  2  2  0  0  0
  1  6  1  0  0  0
  1 28  1  0  0  0
  2  3  1  0  0  0
  2 29  1  0  0  0
  3  4  2  0  0  0
  3  7  1  0  0  0
  4  5  1  0  0  0
  4 30  1  0  0  0
  5  6  2  0  0  0
  5 21  1  0  0  0
  6 31  1  0  0  0
  7 11  2  0  0  0
  7  8  1  0  0  0
  8  9  1  0  0  0
  9 10  2  0  0  0
  9 13  1  0  0  0
 10 11  1  0  0  0
 10 16  1  0  0  0
 11 12  1  0  0  0
 13 14  2  0  0  0
 13 15  1  0  0  0
 16 17  1  0  0  0
 17 18  1  0  0  0
 17 32  1  0  0  0
 17 33  1  0  0  0
 18 20  1  0  0  0
 18 19  2  0  0  0
 21 22  1  0  0  0
 21 34  1  0  0  0
 22 27  1  0  0  0
 22 23  1  0  0  0
 22 35  1  0  0  0
 23 24  1  0  0  0
 23 36  1  0  0  0
 23 37  1  0  0  0
 24 25  1  0  0  0
 24 38  1  0  0  0
 24 39  1  0  0  0
 25 26  1  0  0  0
 25 40  1  0  0  0
 25 41  1  0  0  0
 26 27  1  0  0  0
 26 42  1  0  0  0
 26 43  1  0  0  0
 27 44  1  0  0  0
 27 45  1  0  0  0
M  CHG  2  15  -1  20  -1
M  END
> <s_m_entry_id>
22

> <s_m_entry_id>
1367

> <MODEL>
1

> <REMARK>
 VINA RESULT:    -6.761      0.000      0.000
 INTER + INTRA:         -10.724
 INTER:                  -9.527
 INTRA:                  -1.197
 UNBOUND:                -1.197
  Name = /scratch/kmzp800/tmp6okf_05_/tmp2w3lo6px.pdb
  7 active torsions:
  status: ('A' for Active; 'I' for Inactive)
    1  A    between atoms: C3_3  and  C4_4
    2  A    between atoms: C5_6  and  C6_7
    3  A    between atoms: C7_10  and  O3_11
    4  A    between atoms: O3_11  and  C8_12
    5  A    between atoms: C8_12  and  C9_13
    6  A    between atoms: C12_19  and  N1_20
    7  A    between atoms: N1_20  and  C13_21
                            x       y       z     vdW  Elec       q    Type
                         _______ _______ _______ _____ _____    ______ ____

> <TORSDO>
F 7

> <grid_id>
ptp1b-prepared

> <grid_path>
ptp1b_vina.pdbqt

> <grid_filename>
ptp1b_vina.pdbqt

> <docking_score>
-6.761

> <compound_name>
lig_20670_2qbs

> <index_string>
21:0:0

> <s_m_Source_Path>
/projects/mai/users/kmzp800_harry/pmx_colab/docking_jobs/ptp1b/vina_prep

> <s_m_Source_File>
ptp1b_confs_vina_naive.sdf

> <i_m_Source_File_Index>
22

> <s_m_Source_Path>
/projects/mai/users/kmzp800_harry/pmx_colab/docking_jobs/ptp1b/vina_prep

> <s_m_Source_File>
ptp1b_vina_naive_confs.sdf

> <i_m_Source_File_Index>
22

$$$$
lig_23466
                    3D
 Schrodinger Suite 2021-4.
 29 30  0  0  1  0            999 V2000
   42.9250   13.4300   16.1630 C   0  0  0  0  0  0
   43.8410   14.8450   16.1570 S   0  0  0  0  0  0
   43.0720   15.5830   14.8640 C   0  0  0  0  0  0
   42.0640   14.7370   14.4060 C   0  0  0  0  0  0
   41.9860   13.5130   15.1200 C   0  0  0  0  0  0
   40.8560   12.0480   14.5920 Br  0  0  0  0  0  0
   43.3010   11.5530   19.4280 C   0  0  0  0  0  0
   43.1240   12.5860   18.5030 C   0  0  0  0  0  0
   43.1390   12.3220   17.1240 C   0  0  0  0  0  0
   43.3170   11.0000   16.6920 C   0  0  0  0  0  0
   43.4940    9.9650   17.6150 C   0  0  0  0  0  0
   43.4860   10.2430   18.9840 C   0  0  0  0  0  0
   43.6780    8.6310   17.1600 N   0  0  0  0  0  0
   43.4130   16.9130   14.3360 C   0  0  0  0  0  0
   43.3820   17.9180   15.0920 O   0  5  0  0  0  0
   43.7700   17.0750   13.0030 O   0  0  0  0  0  0
   41.2490   15.1040   13.3250 O   0  0  0  0  0  0
   40.0970   15.9280   13.4350 C   0  0  0  0  0  0
   40.1990   17.0790   12.4930 C   0  0  0  0  0  0
   41.0680   17.0740   11.5830 O   0  0  0  0  0  0
   39.3090   18.1400   12.5960 O   0  5  0  0  0  0
   43.2945   11.7727   20.5058 H   0  0  0  0  0  0
   42.9715   13.6156   18.8589 H   0  0  0  0  0  0
   43.3174   10.7748   15.6153 H   0  0  0  0  0  0
   43.6254    9.4298   19.7115 H   0  0  0  0  0  0
   43.8084    7.8683   17.8399 H   0  0  0  0  0  0
   43.6809    8.4270   16.1504 H   0  0  0  0  0  0
   39.2020   15.3367   13.1914 H   0  0  0  0  0  0
   40.0243   16.3100   14.4640 H   0  0  0  0  0  0
  1  9  1  0  0  0
  1  2  1  0  0  0
  1  5  2  0  0  0
  2  3  1  0  0  0
  3  4  2  0  0  0
  3 14  1  0  0  0
  4  5  1  0  0  0
  4 17  1  0  0  0
  5  6  1  0  0  0
  7  8  2  0  0  0
  7 12  1  0  0  0
  7 22  1  0  0  0
  8  9  1  0  0  0
  8 23  1  0  0  0
  9 10  2  0  0  0
 10 11  1  0  0  0
 10 24  1  0  0  0
 11 12  2  0  0  0
 11 13  1  0  0  0
 12 25  1  0  0  0
 13 26  1  0  0  0
 13 27  1  0  0  0
 14 15  1  0  0  0
 14 16  2  0  0  0
 17 18  1  0  0  0
 18 19  1  0  0  0
 18 28  1  0  0  0
 18 29  1  0  0  0
 19 21  1  0  0  0
 19 20  2  0  0  0
M  CHG  2  15  -1  21  -1
M  END
> <s_m_entry_id>
23

> <s_m_entry_id>
1368

> <MODEL>
1

> <REMARK>
 VINA RESULT:    -6.986      0.000      0.000
 INTER + INTRA:          -9.573
 INTER:                  -9.233
 INTRA:                  -0.340
 UNBOUND:                -0.340
  Name = /scratch/kmzp800/tmpgp1cpwz4/tmpmhopne5k.pdb
  6 active torsions:
  status: ('A' for Active; 'I' for Inactive)
    1  A    between atoms: C3_3  and  C4_4
    2  A    between atoms: C5_6  and  C6_7
    3  A    between atoms: C7_10  and  O3_11
    4  A    between atoms: O3_11  and  C8_12
    5  A    between atoms: C8_12  and  C9_13
    6  A    between atoms: C12_19  and  N1_20
                            x       y       z     vdW  Elec       q    Type
                         _______ _______ _______ _____ _____    ______ ____

> <TORSDO>
F 6

> <grid_id>
ptp1b-prepared

> <grid_path>
ptp1b_vina.pdbqt

> <grid_filename>
ptp1b_vina.pdbqt

> <docking_score>
-6.986

> <compound_name>
lig_23466

> <index_string>
22:0:0

> <s_m_Source_Path>
/projects/mai/users/kmzp800_harry/pmx_colab/docking_jobs/ptp1b/vina_prep

> <s_m_Source_File>
ptp1b_confs_vina_naive.sdf

> <i_m_Source_File_Index>
23

> <s_m_Source_Path>
/projects/mai/users/kmzp800_harry/pmx_colab/docking_jobs/ptp1b/vina_prep

> <s_m_Source_File>
ptp1b_vina_naive_confs.sdf

> <i_m_Source_File_Index>
23

$$$$
