lig_23475
                    3D
 Schrodinger Suite 2021-4.
 42 44  0  0  1  0            999 V2000
   41.6009   17.4863   11.9352 O   0  0  0  0  0  0
   40.7956   17.4160   12.8940 C   0  0  0  0  0  0
   39.6359   17.8864   12.8869 O   0  5  0  0  0  0
   41.2481   16.7303   14.1863 C   0  0  0  0  0  0
   42.4390   15.9783   13.9827 O   0  0  0  0  0  0
   42.6279   14.9978   14.8940 C   0  0  0  0  0  0
   42.0647   13.7015   14.7950 C   0  0  0  0  0  0
   40.9838   13.2958   13.2940 Br  0  0  0  0  0  0
   42.3869   12.8272   15.8074 C   0  0  0  0  0  0
   43.3838   13.6578   16.9789 S   0  0  0  0  0  0
   43.3765   15.1312   16.0310 C   0  0  0  0  0  0
   44.1243   16.2847   16.5335 C   0  0  0  0  0  0
   44.5838   17.0863   15.6940 O   0  0  0  0  0  0
   44.2573   16.4566   17.7637 O   0  5  0  0  0  0
   42.0423   11.4162   16.0259 C   0  0  0  0  0  0
   42.9169   10.5426   16.7124 C   0  0  0  0  0  0
   42.5835    9.1853   16.8942 C   0  0  0  0  0  0
   41.3834    8.6692   16.3682 C   0  0  0  0  0  0
   40.4993    9.5209   15.6712 C   0  0  0  0  0  0
   40.8315   10.8826   15.5364 C   0  0  0  0  0  0
   39.2962    9.0863   15.0925 N   0  0  0  0  0  0
   39.0693    7.6858   14.7569 C   0  0  0  0  0  0
   37.6850    7.4593   14.1478 C   0  0  0  0  0  0
   37.7944    6.1116   13.4267 C   0  0  0  0  0  0
   39.2789    5.9376   13.0696 C   0  0  0  0  0  0
   40.0082    7.1425   13.6741 C   0  0  0  0  0  0
   41.4255   17.4863   14.9515 H   0  0  0  0  0  0
   40.4324   16.0974   14.5419 H   0  0  0  0  0  0
   43.8582   10.9030   17.1010 H   0  0  0  0  0  0
   43.2602    8.5317   17.4242 H   0  0  0  0  0  0
   41.1583    7.6220   16.5043 H   0  0  0  0  0  0
   40.1365   11.5282   15.0314 H   0  0  0  0  0  0
   38.7727    9.7739   14.5596 H   0  0  0  0  0  0
   39.1541    7.0730   15.6555 H   0  0  0  0  0  0
   36.8905    7.4719   14.8947 H   0  0  0  0  0  0
   37.4652    8.2396   13.4168 H   0  0  0  0  0  0
   37.4833    5.3070   14.0942 H   0  0  0  0  0  0
   37.1528    6.0721   12.5460 H   0  0  0  0  0  0
   39.6613    5.0096   13.4970 H   0  0  0  0  0  0
   39.4355    5.8863   11.9914 H   0  0  0  0  0  0
   40.1640    7.8864   12.8940 H   0  0  0  0  0  0
   40.9838    6.8722   14.0715 H   0  0  0  0  0  0
  1  2  2  0  0  0
  2  3  1  0  0  0
  2  4  1  0  0  0
  4  5  1  0  0  0
  4 27  1  0  0  0
  4 28  1  0  0  0
  5  6  1  0  0  0
  6 11  2  0  0  0
  6  7  1  0  0  0
  7  8  1  0  0  0
  7  9  2  0  0  0
  9 10  1  0  0  0
  9 15  1  0  0  0
 10 11  1  0  0  0
 11 12  1  0  0  0
 12 13  2  0  0  0
 12 14  1  0  0  0
 15 20  1  0  0  0
 15 16  2  0  0  0
 16 17  1  0  0  0
 16 29  1  0  0  0
 17 18  2  0  0  0
 17 30  1  0  0  0
 18 19  1  0  0  0
 18 31  1  0  0  0
 19 20  2  0  0  0
 19 21  1  0  0  0
 20 32  1  0  0  0
 21 22  1  0  0  0
 21 33  1  0  0  0
 22 26  1  0  0  0
 22 23  1  0  0  0
 22 34  1  0  0  0
 23 24  1  0  0  0
 23 35  1  0  0  0
 23 36  1  0  0  0
 24 25  1  0  0  0
 24 37  1  0  0  0
 24 38  1  0  0  0
 25 26  1  0  0  0
 25 39  1  0  0  0
 25 40  1  0  0  0
 26 41  1  0  0  0
 26 42  1  0  0  0
M  CHG  2   3  -1  14  -1
M  END
> <s_m_entry_id>
453

> <i_f3d_flags>
0

> <r_epik_Ionization_Penalty>
  0.0029

> <r_epik_State_Penalty>
  0.0020

> <i_epik_Tot_Q>
-2

> <s_m_job_name>
glide-dock_SP_ptp1b_no_cons

> <r_i_docking_score>
-8.44336057600271

> <r_i_glide_gscore>
-8.44536057600271

> <r_i_glide_emodel>
-108.01200136792

$$$$
lig_23473
                    3D
 Schrodinger Suite 2021-4.
 41 43  0  0  1  0            999 V2000
   41.3850   17.4860   11.6618 O   0  0  0  0  0  0
   40.5387   17.4022   12.5813 C   0  0  0  0  0  0
   39.3824   17.8759   12.5252 O   0  5  0  0  0  0
   40.9369   16.6788   13.8668 C   0  0  0  0  0  0
   42.1118   15.9119   13.6500 O   0  0  0  0  0  0
   42.3910   15.0326   14.6340 C   0  0  0  0  0  0
   41.9098   13.7019   14.6705 C   0  0  0  0  0  0
   40.7592   13.1072   13.2940 Br  0  0  0  0  0  0
   42.3651   12.9281   15.7111 C   0  0  0  0  0  0
   43.3841   13.9012   16.7418 S   0  0  0  0  0  0
   43.1829   15.3071   15.7134 C   0  0  0  0  0  0
   43.8417   16.5526   16.1157 C   0  0  0  0  0  0
   43.9276   17.4869   15.2938 O   0  0  0  0  0  0
   44.2943   16.6772   17.2729 O   0  5  0  0  0  0
   42.1529   11.5138   16.0334 C   0  0  0  0  0  0
   43.1511   10.7554   16.6861 C   0  0  0  0  0  0
   42.9600    9.3846   16.9419 C   0  0  0  0  0  0
   41.7849    8.7382   16.5123 C   0  0  0  0  0  0
   40.7769    9.4768   15.8549 C   0  0  0  0  0  0
   40.9601   10.8578   15.6646 C   0  0  0  0  0  0
   39.6109    8.9346   15.3686 O   0  0  0  0  0  0
   39.5764    7.5358   15.1188 C   0  0  0  0  0  0
   38.3416    7.1214   14.3353 C   0  0  0  0  0  0
   38.1883    5.7758   13.9434 C   0  0  0  0  0  0
   37.0421    5.3687   13.2323 C   0  0  0  0  0  0
   36.0406    6.3039   12.9103 C   0  0  0  0  0  0
   36.1918    7.6492   13.2939 C   0  0  0  0  0  0
   37.3397    8.0584   13.9995 C   0  0  0  0  0  0
   41.1094   17.4145   14.6538 H   0  0  0  0  0  0
   40.1092   16.0426   14.1848 H   0  0  0  0  0  0
   44.0824   11.2149   16.9848 H   0  0  0  0  0  0
   43.7309    8.8192   17.4437 H   0  0  0  0  0  0
   41.6725    7.6807   16.6924 H   0  0  0  0  0  0
   40.1647   11.4049   15.1906 H   0  0  0  0  0  0
   40.4601    7.2316   14.5541 H   0  0  0  0  0  0
   39.5780    6.9910   16.0635 H   0  0  0  0  0  0
   38.9485    5.0500   14.1935 H   0  0  0  0  0  0
   36.9300    4.3347   12.9420 H   0  0  0  0  0  0
   35.1576    5.9890   12.3767 H   0  0  0  0  0  0
   35.4282    8.3713   13.0486 H   0  0  0  0  0  0
   37.4390    9.0954   14.2817 H   0  0  0  0  0  0
  1  2  2  0  0  0
  2  3  1  0  0  0
  2  4  1  0  0  0
  4  5  1  0  0  0
  4 29  1  0  0  0
  4 30  1  0  0  0
  5  6  1  0  0  0
  6 11  2  0  0  0
  6  7  1  0  0  0
  7  8  1  0  0  0
  7  9  2  0  0  0
  9 10  1  0  0  0
  9 15  1  0  0  0
 10 11  1  0  0  0
 11 12  1  0  0  0
 12 13  2  0  0  0
 12 14  1  0  0  0
 15 20  1  0  0  0
 15 16  2  0  0  0
 16 17  1  0  0  0
 16 31  1  0  0  0
 17 18  2  0  0  0
 17 32  1  0  0  0
 18 19  1  0  0  0
 18 33  1  0  0  0
 19 20  2  0  0  0
 19 21  1  0  0  0
 20 34  1  0  0  0
 21 22  1  0  0  0
 22 23  1  0  0  0
 22 35  1  0  0  0
 22 36  1  0  0  0
 23 28  1  0  0  0
 23 24  2  0  0  0
 24 25  1  0  0  0
 24 37  1  0  0  0
 25 26  2  0  0  0
 25 38  1  0  0  0
 26 27  1  0  0  0
 26 39  1  0  0  0
 27 28  2  0  0  0
 27 40  1  0  0  0
 28 41  1  0  0  0
M  CHG  2   3  -1  14  -1
M  END
> <s_m_entry_id>
454

> <i_f3d_flags>
0

> <r_epik_Ionization_Penalty>
  0.0001

> <r_epik_State_Penalty>
  0.0000

> <i_epik_Tot_Q>
-2

> <s_m_job_name>
glide-dock_SP_ptp1b_no_cons

> <r_lp_tautomer_probability>
1

> <r_i_docking_score>
-7.78748982424087

> <r_i_glide_gscore>
-7.78748982424087

> <r_i_glide_emodel>
-104.751586018887

$$$$
lig_23472
                    3D
 Schrodinger Suite 2021-4.
 42 44  0  0  1  0            999 V2000
   39.6328   17.8863   12.8851 O   0  0  0  0  0  0
   40.7928   17.4166   12.8940 C   0  0  0  0  0  0
   41.5979   17.4863   11.9350 O   0  5  0  0  0  0
   41.2465   16.7299   14.1850 C   0  0  0  0  0  0
   42.4330   15.9726   13.9757 O   0  0  0  0  0  0
   42.6247   14.9950   14.8890 C   0  0  0  0  0  0
   42.0654   13.6961   14.7933 C   0  0  0  0  0  0
   40.9838   13.2746   13.2940 Br  0  0  0  0  0  0
   42.3905   12.8309   15.8127 C   0  0  0  0  0  0
   43.3838   13.6678   16.9802 S   0  0  0  0  0  0
   43.3725   15.1341   16.0264 C   0  0  0  0  0  0
   44.1180   16.2863   16.5311 C   0  0  0  0  0  0
   44.5838   17.0863   15.6940 O   0  0  0  0  0  0
   44.2445   16.4601   17.7618 O   0  5  0  0  0  0
   42.0449   11.4267   16.0548 C   0  0  0  0  0  0
   42.9251   10.5626   16.7473 C   0  0  0  0  0  0
   42.5838    9.2140   16.9714 C   0  0  0  0  0  0
   41.3651    8.7009   16.4896 C   0  0  0  0  0  0
   40.4761    9.5462   15.7956 C   0  0  0  0  0  0
   40.8219   10.8955   15.5966 C   0  0  0  0  0  0
   39.2700    9.0863   15.2592 N   0  0  0  0  0  0
   38.0450    8.1308   16.0194 S   0  0  0  0  0  0
   38.7129    7.2362   16.9757 O   0  0  0  0  0  0
   37.0125    9.0863   16.4569 O   0  0  0  0  0  0
   37.4319    7.1649   14.6463 C   0  0  0  0  0  0
   36.1838    7.4731   14.0719 C   0  0  0  0  0  0
   35.7084    6.7111   12.9882 C   0  0  0  0  0  0
   36.4864    5.6554   12.4740 C   0  0  0  0  0  0
   36.0343    4.9468   11.4122 F   0  0  0  0  0  0
   37.7406    5.3562   13.0440 C   0  0  0  0  0  0
   38.2160    6.1108   14.1358 C   0  0  0  0  0  0
   41.4302   17.4863   14.9486 H   0  0  0  0  0  0
   40.4298   16.1002   14.5440 H   0  0  0  0  0  0
   43.8767   10.9238   17.1090 H   0  0  0  0  0  0
   43.2668    8.5657   17.5000 H   0  0  0  0  0  0
   41.1332    7.6573   16.6417 H   0  0  0  0  0  0
   40.1244   11.5346   15.0853 H   0  0  0  0  0  0
   38.8664    9.7596   14.6184 H   0  0  0  0  0  0
   35.5927    8.2863   14.4602 H   0  0  0  0  0  0
   34.7495    6.9398   12.5495 H   0  0  0  0  0  0
   38.3382    4.5502   12.6435 H   0  0  0  0  0  0
   39.1776    5.8866   14.5757 H   0  0  0  0  0  0
  1  2  2  0  0  0
  2  3  1  0  0  0
  2  4  1  0  0  0
  4  5  1  0  0  0
  4 32  1  0  0  0
  4 33  1  0  0  0
  5  6  1  0  0  0
  6 11  2  0  0  0
  6  7  1  0  0  0
  7  8  1  0  0  0
  7  9  2  0  0  0
  9 10  1  0  0  0
  9 15  1  0  0  0
 10 11  1  0  0  0
 11 12  1  0  0  0
 12 13  2  0  0  0
 12 14  1  0  0  0
 15 20  1  0  0  0
 15 16  2  0  0  0
 16 17  1  0  0  0
 16 34  1  0  0  0
 17 18  2  0  0  0
 17 35  1  0  0  0
 18 19  1  0  0  0
 18 36  1  0  0  0
 19 20  2  0  0  0
 19 21  1  0  0  0
 20 37  1  0  0  0
 21 22  1  0  0  0
 21 38  1  0  0  0
 22 23  2  0  0  0
 22 24  2  0  0  0
 22 25  1  0  0  0
 25 31  1  0  0  0
 25 26  2  0  0  0
 26 27  1  0  0  0
 26 39  1  0  0  0
 27 28  2  0  0  0
 27 40  1  0  0  0
 28 29  1  0  0  0
 28 30  1  0  0  0
 30 31  2  0  0  0
 30 41  1  0  0  0
 31 42  1  0  0  0
M  CHG  2   3  -1  14  -1
M  END
> <s_m_entry_id>
455

> <i_f3d_flags>
0

> <r_epik_Ionization_Penalty>
  0.0488

> <r_epik_State_Penalty>
  0.0416

> <i_epik_Tot_Q>
-2

> <s_m_job_name>
glide-dock_SP_ptp1b_no_cons

> <r_i_docking_score>
-7.21828856669041

> <r_i_glide_gscore>
-7.25988856669041

> <r_i_glide_emodel>
-107.060486275225

$$$$
lig_23483
                    3D
 Schrodinger Suite 2021-4.
 57 60  0  0  1  0            999 V2000
   41.8911   17.4863   12.0958 O   0  0  0  0  0  0
   41.0070   17.3858   12.9807 C   0  0  0  0  0  0
   39.8625   17.8871   12.8938 O   0  5  0  0  0  0
   41.3393   16.6250   14.2741 C   0  0  0  0  0  0
   42.5434   15.8705   14.1446 O   0  0  0  0  0  0
   42.6655   14.8372   15.0133 C   0  0  0  0  0  0
   42.0569   13.5630   14.8344 C   0  0  0  0  0  0
   40.9831   13.2812   13.2941 Br  0  0  0  0  0  0
   42.3236   12.6216   15.8078 C   0  0  0  0  0  0
   43.3712   13.3455   17.0125 S   0  0  0  0  0  0
   43.3842   14.8872   16.1797 C   0  0  0  0  0  0
   44.1097   15.9934   16.8197 C   0  0  0  0  0  0
   44.5838   16.8924   16.0935 O   0  0  0  0  0  0
   44.1988   16.0373   18.0654 O   0  5  0  0  0  0
   41.8895   11.2199   15.9838 C   0  0  0  0  0  0
   42.6624   10.2917   16.7200 C   0  0  0  0  0  0
   42.2297    8.9601   16.8933 C   0  0  0  0  0  0
   41.0297    8.5080   16.3054 C   0  0  0  0  0  0
   40.2370    9.4132   15.5719 C   0  0  0  0  0  0
   40.6745   10.7500   15.4376 C   0  0  0  0  0  0
   39.0048    9.0862   14.9831 N   0  0  0  0  0  0
   38.4545    7.7552   14.7540 C   0  0  0  0  0  0
   36.9323    7.9058   14.5684 C   0  0  0  0  0  0
   36.2380    6.6009   14.1535 C   0  0  0  0  0  0
   36.8522    6.0524   12.9339 N   0  0  1  0  0  0
   38.3084    5.8228   13.0562 C   0  0  0  0  0  0
   39.0471    7.1122   13.4842 C   0  0  0  0  0  0
   35.8807    5.0499   11.8907 S   0  0  0  0  0  0
   34.5840    5.7211   11.6940 O   0  0  0  0  0  0
   36.6894    4.6862   10.7186 O   0  0  0  0  0  0
   35.6243    3.5745   12.8677 C   0  0  0  0  0  0
   34.3791    3.3503   13.4886 C   0  0  0  0  0  0
   34.1809    2.1773   14.2429 C   0  0  0  0  0  0
   35.2228    1.2365   14.3714 C   0  0  0  0  0  0
   36.4645    1.4636   13.7439 C   0  0  0  0  0  0
   36.6679    2.6354   12.9889 C   0  0  0  0  0  0
   41.4517   17.3422   15.0881 H   0  0  0  0  0  0
   40.4922   15.9847   14.5254 H   0  0  0  0  0  0
   43.6004   10.5896   17.1649 H   0  0  0  0  0  0
   42.8372    8.2820   17.4713 H   0  0  0  0  0  0
   40.7249    7.4805   16.4382 H   0  0  0  0  0  0
   40.0456   11.4372   14.9034 H   0  0  0  0  0  0
   38.5418    9.8468   14.4941 H   0  0  0  0  0  0
   38.6462    7.1163   15.6165 H   0  0  0  0  0  0
   36.4837    8.2784   15.4896 H   0  0  0  0  0  0
   36.7291    8.6600   13.8058 H   0  0  0  0  0  0
   36.3014    5.8605   14.9517 H   0  0  0  0  0  0
   35.1783    6.7911   13.9814 H   0  0  0  0  0  0
   38.4853    5.0265   13.7798 H   0  0  0  0  0  0
   38.7102    5.4779   12.1032 H   0  0  0  0  0  0
   39.0043    7.8304   12.6656 H   0  0  0  0  0  0
   40.1053    6.8941   13.6368 H   0  0  0  0  0  0
   33.5774    4.0655   13.3837 H   0  0  0  0  0  0
   33.2289    1.9956   14.7181 H   0  0  0  0  0  0
   35.0675    0.3343   14.9458 H   0  0  0  0  0  0
   37.2585    0.7356   13.8357 H   0  0  0  0  0  0
   37.6152    2.8084   12.4992 H   0  0  0  0  0  0
  1  2  2  0  0  0
  2  3  1  0  0  0
  2  4  1  0  0  0
  4  5  1  0  0  0
  4 37  1  0  0  0
  4 38  1  0  0  0
  5  6  1  0  0  0
  6 11  2  0  0  0
  6  7  1  0  0  0
  7  8  1  0  0  0
  7  9  2  0  0  0
  9 10  1  0  0  0
  9 15  1  0  0  0
 10 11  1  0  0  0
 11 12  1  0  0  0
 12 13  2  0  0  0
 12 14  1  0  0  0
 15 20  1  0  0  0
 15 16  2  0  0  0
 16 17  1  0  0  0
 16 39  1  0  0  0
 17 18  2  0  0  0
 17 40  1  0  0  0
 18 19  1  0  0  0
 18 41  1  0  0  0
 19 20  2  0  0  0
 19 21  1  0  0  0
 20 42  1  0  0  0
 21 22  1  0  0  0
 21 43  1  0  0  0
 22 27  1  0  0  0
 22 23  1  0  0  0
 22 44  1  0  0  0
 23 24  1  0  0  0
 23 45  1  0  0  0
 23 46  1  0  0  0
 24 25  1  0  0  0
 24 47  1  0  0  0
 24 48  1  0  0  0
 25 26  1  0  0  0
 25 28  1  0  0  0
 26 27  1  0  0  0
 26 49  1  0  0  0
 26 50  1  0  0  0
 27 51  1  0  0  0
 27 52  1  0  0  0
 28 29  2  0  0  0
 28 30  2  0  0  0
 28 31  1  0  0  0
 31 36  1  0  0  0
 31 32  2  0  0  0
 32 33  1  0  0  0
 32 53  1  0  0  0
 33 34  2  0  0  0
 33 54  1  0  0  0
 34 35  1  0  0  0
 34 55  1  0  0  0
 35 36  2  0  0  0
 35 56  1  0  0  0
 36 57  1  0  0  0
M  CHG  2   3  -1  14  -1
M  END
> <s_m_entry_id>
456

> <i_f3d_flags>
0

> <r_epik_Ionization_Penalty>
  0.0004

> <r_epik_State_Penalty>
  0.0002

> <i_epik_Tot_Q>
-2

> <s_m_job_name>
glide-dock_SP_ptp1b_no_cons

> <r_i_docking_score>
-9.14231218001289

> <r_i_glide_gscore>
-9.14251218001289

> <r_i_glide_emodel>
-134.272806293586

$$$$
lig_23477
                    3D
 Schrodinger Suite 2021-4.
 43 45  0  0  1  0            999 V2000
   41.6042   17.4863   11.9360 O   0  0  0  0  0  0
   40.7979   17.4159   12.8940 C   0  0  0  0  0  0
   39.6383   17.8863   12.8850 O   0  5  0  0  0  0
   41.2500   16.7291   14.1857 C   0  0  0  0  0  0
   42.4340   15.9676   13.9770 O   0  0  0  0  0  0
   42.6234   14.9901   14.8912 C   0  0  0  0  0  0
   42.0616   13.6919   14.7954 C   0  0  0  0  0  0
   40.9838   13.2745   13.2940 Br  0  0  0  0  0  0
   42.3845   12.8219   15.8114 C   0  0  0  0  0  0
   43.3838   13.6571   16.9782 S   0  0  0  0  0  0
   43.3719   15.1291   16.0279 C   0  0  0  0  0  0
   44.1158   16.2863   16.5311 C   0  0  0  0  0  0
   44.5838   17.0863   15.6940 O   0  0  0  0  0  0
   44.2367   16.4634   17.7618 O   0  5  0  0  0  0
   42.0381   11.4123   16.0388 C   0  0  0  0  0  0
   42.9202   10.5394   16.7165 C   0  0  0  0  0  0
   42.5838    9.1851   16.9143 C   0  0  0  0  0  0
   41.3722    8.6707   16.4144 C   0  0  0  0  0  0
   40.4810    9.5205   15.7249 C   0  0  0  0  0  0
   40.8171   10.8803   15.5720 C   0  0  0  0  0  0
   39.2637    9.0863   15.1762 N   0  0  0  0  0  0
   39.0186    7.6912   14.8242 C   0  0  0  0  0  0
   37.5621    7.5234   14.3624 C   0  0  0  0  0  0
   37.3006    6.0932   13.8651 C   0  0  0  0  0  0
   38.1980    5.7832   12.8052 O   0  0  0  0  0  0
   39.5588    5.7918   13.2238 C   0  0  0  0  0  0
   39.9520    7.1988   13.7024 C   0  0  0  0  0  0
   41.4365   17.4863   14.9479 H   0  0  0  0  0  0
   40.4316   16.1024   14.5460 H   0  0  0  0  0  0
   43.8690   10.8989   17.0872 H   0  0  0  0  0  0
   43.2663    8.5327   17.4385 H   0  0  0  0  0  0
   41.1437    7.6262   16.5649 H   0  0  0  0  0  0
   40.1174   11.5270   15.0737 H   0  0  0  0  0  0
   38.7396    9.7794   14.6511 H   0  0  0  0  0  0
   39.1650    7.0721   15.7100 H   0  0  0  0  0  0
   36.8780    7.7641   15.1768 H   0  0  0  0  0  0
   37.3451    8.2237   13.5542 H   0  0  0  0  0  0
   37.4091    5.3708   14.6758 H   0  0  0  0  0  0
   36.2785    6.0066   13.4965 H   0  0  0  0  0  0
   39.7172    5.0545   14.0123 H   0  0  0  0  0  0
   40.1839    5.4940   12.3823 H   0  0  0  0  0  0
   39.9132    7.8863   12.8583 H   0  0  0  0  0  0
   40.9838    7.1780   14.0477 H   0  0  0  0  0  0
  1  2  2  0  0  0
  2  3  1  0  0  0
  2  4  1  0  0  0
  4  5  1  0  0  0
  4 28  1  0  0  0
  4 29  1  0  0  0
  5  6  1  0  0  0
  6 11  2  0  0  0
  6  7  1  0  0  0
  7  8  1  0  0  0
  7  9  2  0  0  0
  9 10  1  0  0  0
  9 15  1  0  0  0
 10 11  1  0  0  0
 11 12  1  0  0  0
 12 13  2  0  0  0
 12 14  1  0  0  0
 15 20  1  0  0  0
 15 16  2  0  0  0
 16 17  1  0  0  0
 16 30  1  0  0  0
 17 18  2  0  0  0
 17 31  1  0  0  0
 18 19  1  0  0  0
 18 32  1  0  0  0
 19 20  2  0  0  0
 19 21  1  0  0  0
 20 33  1  0  0  0
 21 22  1  0  0  0
 21 34  1  0  0  0
 22 27  1  0  0  0
 22 23  1  0  0  0
 22 35  1  0  0  0
 23 24  1  0  0  0
 23 36  1  0  0  0
 23 37  1  0  0  0
 24 25  1  0  0  0
 24 38  1  0  0  0
 24 39  1  0  0  0
 25 26  1  0  0  0
 26 27  1  0  0  0
 26 40  1  0  0  0
 26 41  1  0  0  0
 27 42  1  0  0  0
 27 43  1  0  0  0
M  CHG  2   3  -1  14  -1
M  END
> <s_m_entry_id>
457

> <i_f3d_flags>
0

> <r_epik_Ionization_Penalty>
  0.0006

> <r_epik_State_Penalty>
  0.0003

> <i_epik_Tot_Q>
-2

> <s_m_job_name>
glide-dock_SP_ptp1b_no_cons

> <r_i_docking_score>
-8.36649571713962

> <r_i_glide_gscore>
-8.36679571713962

> <r_i_glide_emodel>
-109.703890438312

$$$$
lig_23482
                    3D
 Schrodinger Suite 2021-4.
 50 52  0  0  1  0            999 V2000
   39.7176   17.8864   12.8842 O   0  0  0  0  0  0
   40.8726   17.4049   12.8980 C   0  0  0  0  0  0
   41.6918   17.4862   11.9525 O   0  5  0  0  0  0
   41.3032   16.6901   14.1816 C   0  0  0  0  0  0
   42.4581   15.8880   13.9620 O   0  0  0  0  0  0
   42.6339   14.9183   14.8874 C   0  0  0  0  0  0
   42.0561   13.6269   14.8008 C   0  0  0  0  0  0
   40.9834   13.2066   13.2941 Br  0  0  0  0  0  0
   42.3543   12.7644   15.8312 C   0  0  0  0  0  0
   43.3838   13.5843   16.9815 S   0  0  0  0  0  0
   43.3838   15.0571   16.0241 C   0  0  0  0  0  0
   44.1405   16.2146   16.5196 C   0  0  0  0  0  0
   44.4911   17.0863   15.6941 O   0  0  0  0  0  0
   44.3931   16.3183   17.7386 O   0  5  0  0  0  0
   41.9442   11.3752   16.0758 C   0  0  0  0  0  0
   42.7914   10.4357   16.7073 C   0  0  0  0  0  0
   42.3721    9.0993   16.8940 C   0  0  0  0  0  0
   41.1147    8.6687   16.4196 C   0  0  0  0  0  0
   40.2561    9.5970   15.7954 C   0  0  0  0  0  0
   40.6718   10.9347   15.6643 C   0  0  0  0  0  0
   38.9834    9.2953   15.2948 N   0  0  0  0  0  0
   38.4890    7.9608   14.9764 C   0  0  0  0  0  0
   36.9712    8.0617   14.7494 C   0  0  0  0  0  0
   36.3423    6.7361   14.3008 C   0  0  0  0  0  0
   37.0134    6.2035   13.1016 N   0  0  2  0  0  0
   36.1290    5.0890   12.1004 S   0  0  0  0  0  0
   34.8089    5.6823   11.8313 O   0  0  0  0  0  0
   36.9837    4.6863   10.9750 O   0  0  0  0  0  0
   35.9079    3.6382   13.1978 C   0  0  0  0  0  0
   38.4795    6.0665   13.2434 C   0  0  0  0  0  0
   39.1299    7.3946   13.6954 C   0  0  0  0  0  0
   41.5183   17.4350   14.9489 H   0  0  0  0  0  0
   40.4653   16.0880   14.5389 H   0  0  0  0  0  0
   43.7736   10.7319   17.0455 H   0  0  0  0  0  0
   43.0304    8.3940   17.3797 H   0  0  0  0  0  0
   40.8199    7.6378   16.5486 H   0  0  0  0  0  0
   39.9912   11.6430   15.2244 H   0  0  0  0  0  0
   38.5508   10.0524   14.7666 H   0  0  0  0  0  0
   38.6819    7.2894   15.8136 H   0  0  0  0  0  0
   36.4839    8.3996   15.6644 H   0  0  0  0  0  0
   36.7619    8.8207   13.9931 H   0  0  0  0  0  0
   36.4057    5.9990   15.1020 H   0  0  0  0  0  0
   35.2829    6.8887   14.0934 H   0  0  0  0  0  0
   35.3673    2.8627   12.6557 H   0  0  0  0  0  0
   36.8838    3.2555   13.4940 H   0  0  0  0  0  0
   35.3384    3.9244   14.0805 H   0  0  0  0  0  0
   38.6961    5.2733   13.9602 H   0  0  0  0  0  0
   38.9147    5.7590   12.2922 H   0  0  0  0  0  0
   39.0338    8.1270   12.8939 H   0  0  0  0  0  0
   40.1999    7.2459   13.8449 H   0  0  0  0  0  0
  1  2  2  0  0  0
  2  3  1  0  0  0
  2  4  1  0  0  0
  4  5  1  0  0  0
  4 32  1  0  0  0
  4 33  1  0  0  0
  5  6  1  0  0  0
  6 11  2  0  0  0
  6  7  1  0  0  0
  7  8  1  0  0  0
  7  9  2  0  0  0
  9 10  1  0  0  0
  9 15  1  0  0  0
 10 11  1  0  0  0
 11 12  1  0  0  0
 12 13  2  0  0  0
 12 14  1  0  0  0
 15 20  1  0  0  0
 15 16  2  0  0  0
 16 17  1  0  0  0
 16 34  1  0  0  0
 17 18  2  0  0  0
 17 35  1  0  0  0
 18 19  1  0  0  0
 18 36  1  0  0  0
 19 20  2  0  0  0
 19 21  1  0  0  0
 20 37  1  0  0  0
 21 22  1  0  0  0
 21 38  1  0  0  0
 22 31  1  0  0  0
 22 23  1  0  0  0
 22 39  1  0  0  0
 23 24  1  0  0  0
 23 40  1  0  0  0
 23 41  1  0  0  0
 24 25  1  0  0  0
 24 42  1  0  0  0
 24 43  1  0  0  0
 25 26  1  0  0  0
 25 30  1  0  0  0
 26 27  2  0  0  0
 26 28  2  0  0  0
 26 29  1  0  0  0
 29 44  1  0  0  0
 29 45  1  0  0  0
 29 46  1  0  0  0
 30 31  1  0  0  0
 30 47  1  0  0  0
 30 48  1  0  0  0
 31 49  1  0  0  0
 31 50  1  0  0  0
M  CHG  2   3  -1  14  -1
M  END
> <s_m_entry_id>
458

> <i_f3d_flags>
0

> <r_epik_Ionization_Penalty>
  0.0005

> <r_epik_State_Penalty>
  0.0002

> <i_epik_Tot_Q>
-2

> <s_m_job_name>
glide-dock_SP_ptp1b_no_cons

> <r_i_docking_score>
-9.13792678649735

> <r_i_glide_gscore>
-9.13812678649735

> <r_i_glide_emodel>
-124.773693495116

$$$$
lig_23476
                    3D
 Schrodinger Suite 2021-4.
 48 50  0  0  1  0            999 V2000
   39.3835   17.8863   12.4956 O   0  0  0  0  0  0
   40.5377   17.4074   12.5513 C   0  0  0  0  0  0
   41.3838   17.4863   11.6313 O   0  5  0  0  0  0
   40.9326   16.6837   13.8379 C   0  0  0  0  0  0
   42.1084   15.9165   13.6251 O   0  0  0  0  0  0
   42.3810   15.0339   14.6079 C   0  0  0  0  0  0
   41.8794   13.7097   14.6521 C   0  0  0  0  0  0
   40.7112   13.1046   13.2940 Br  0  0  0  0  0  0
   42.3116   12.9407   15.7033 C   0  0  0  0  0  0
   43.3838   13.8869   16.7067 S   0  0  0  0  0  0
   43.1669   15.3051   15.6941 C   0  0  0  0  0  0
   43.8041   16.5565   16.1192 C   0  0  0  0  0  0
   44.1936   16.6856   17.2986 O   0  0  0  0  0  0
   43.9285   17.4864   15.2940 O   0  5  0  0  0  0
   42.0105   11.5504   16.0525 C   0  0  0  0  0  0
   42.9936   10.7022   16.6078 C   0  0  0  0  0  0
   42.6967    9.3550   16.8947 C   0  0  0  0  0  0
   41.4241    8.8269   16.6028 C   0  0  0  0  0  0
   40.4299    9.6590   16.0444 C   0  0  0  0  0  0
   40.7275   11.0141   15.8103 C   0  0  0  0  0  0
   39.1519    9.2027   15.6861 N   0  0  0  0  0  0
   39.0011    7.8755   15.0927 C   0  0  0  0  0  0
   37.5008    7.5156   15.0734 C   0  0  0  0  0  0
   37.1621    6.0129   15.0701 C   0  0  0  0  0  0
   38.0293    5.0972   14.1895 C   0  0  0  0  0  0
   38.4708    5.6987   12.8482 C   0  0  0  0  0  0
   39.7596    6.5223   12.9795 C   0  0  0  0  0  0
   39.5916    7.8868   13.6628 C   0  0  0  0  0  0
   41.1039   17.4202   14.6246 H   0  0  0  0  0  0
   40.1039   16.0488   14.1561 H   0  0  0  0  0  0
   43.9872   11.0768   16.8076 H   0  0  0  0  0  0
   43.4556    8.7166   17.3215 H   0  0  0  0  0  0
   41.2288    7.7870   16.8161 H   0  0  0  0  0  0
   39.9527   11.6482   15.4127 H   0  0  0  0  0  0
   38.6046    9.9072   15.2028 H   0  0  0  0  0  0
   39.5243    7.1468   15.7106 H   0  0  0  0  0  0
   37.0120    7.9424   15.9505 H   0  0  0  0  0  0
   37.0224    7.9996   14.2208 H   0  0  0  0  0  0
   37.2099    5.6368   16.0927 H   0  0  0  0  0  0
   36.1188    5.9054   14.7710 H   0  0  0  0  0  0
   38.9092    4.7786   14.7498 H   0  0  0  0  0  0
   37.4672    4.1820   13.9998 H   0  0  0  0  0  0
   38.6725    4.8780   12.1595 H   0  0  0  0  0  0
   37.6697    6.2823   12.3931 H   0  0  0  0  0  0
   40.5199    5.9406   13.5032 H   0  0  0  0  0  0
   40.1639    6.6924   11.9810 H   0  0  0  0  0  0
   38.9879    8.5363   13.0267 H   0  0  0  0  0  0
   40.5834    8.3364   13.6934 H   0  0  0  0  0  0
  1  2  2  0  0  0
  2  3  1  0  0  0
  2  4  1  0  0  0
  4  5  1  0  0  0
  4 29  1  0  0  0
  4 30  1  0  0  0
  5  6  1  0  0  0
  6 11  2  0  0  0
  6  7  1  0  0  0
  7  8  1  0  0  0
  7  9  2  0  0  0
  9 10  1  0  0  0
  9 15  1  0  0  0
 10 11  1  0  0  0
 11 12  1  0  0  0
 12 13  2  0  0  0
 12 14  1  0  0  0
 15 20  1  0  0  0
 15 16  2  0  0  0
 16 17  1  0  0  0
 16 31  1  0  0  0
 17 18  2  0  0  0
 17 32  1  0  0  0
 18 19  1  0  0  0
 18 33  1  0  0  0
 19 20  2  0  0  0
 19 21  1  0  0  0
 20 34  1  0  0  0
 21 22  1  0  0  0
 21 35  1  0  0  0
 22 28  1  0  0  0
 22 23  1  0  0  0
 22 36  1  0  0  0
 23 24  1  0  0  0
 23 37  1  0  0  0
 23 38  1  0  0  0
 24 25  1  0  0  0
 24 39  1  0  0  0
 24 40  1  0  0  0
 25 26  1  0  0  0
 25 41  1  0  0  0
 25 42  1  0  0  0
 26 27  1  0  0  0
 26 43  1  0  0  0
 26 44  1  0  0  0
 27 28  1  0  0  0
 27 45  1  0  0  0
 27 46  1  0  0  0
 28 47  1  0  0  0
 28 48  1  0  0  0
M  CHG  2   3  -1  14  -1
M  END
> <s_m_entry_id>
459

> <i_f3d_flags>
0

> <r_epik_Ionization_Penalty>
  0.0036

> <r_epik_State_Penalty>
  0.0025

> <i_epik_Tot_Q>
-2

> <s_m_job_name>
glide-dock_SP_ptp1b_no_cons

> <r_i_docking_score>
-8.23167562429936

> <r_i_glide_gscore>
-8.23417562429936

> <r_i_glide_emodel>
-107.990320576782

$$$$
lig_23479
                    3D
 Schrodinger Suite 2021-4.
 49 51  0  0  1  0            999 V2000
   39.6384   17.8874   12.8925 O   0  0  0  0  0  0
   40.7976   17.4152   12.8939 C   0  0  0  0  0  0
   41.5974   17.4858   11.9302 O   0  5  0  0  0  0
   41.2567   16.7278   14.1828 C   0  0  0  0  0  0
   42.4327   15.9562   13.9666 O   0  0  0  0  0  0
   42.6224   14.9816   14.8842 C   0  0  0  0  0  0
   42.0611   13.6821   14.7919 C   0  0  0  0  0  0
   40.9838   13.2521   13.2948 Br  0  0  0  0  0  0
   42.3846   12.8158   15.8099 C   0  0  0  0  0  0
   43.3830   13.6535   16.9745 S   0  0  0  0  0  0
   43.3690   15.1250   16.0227 C   0  0  0  0  0  0
   44.1096   16.2863   16.5312 C   0  0  0  0  0  0
   44.5828   17.0840   15.6993 O   0  0  0  0  0  0
   44.2293   16.4580   17.7622 O   0  5  0  0  0  0
   42.0408   11.4064   16.0400 C   0  0  0  0  0  0
   42.9439   10.5329   16.6875 C   0  0  0  0  0  0
   42.6131    9.1792   16.8940 C   0  0  0  0  0  0
   41.3867    8.6651   16.4324 C   0  0  0  0  0  0
   40.4692    9.5161   15.7787 C   0  0  0  0  0  0
   40.8041   10.8762   15.6116 C   0  0  0  0  0  0
   39.2226    9.0903   15.2913 N   0  0  0  0  0  0
   38.8488    7.6902   15.1414 C   0  0  0  0  0  0
   37.3149    7.5588   15.2015 C   0  0  0  0  0  0
   36.8792    6.1102   14.9349 C   0  0  0  0  0  0
   37.3712    5.7018   13.6126 N   0  0  0  0  0  0
   38.8426    5.6764   13.5608 C   0  0  0  0  0  0
   39.4008    7.0914   13.8264 C   0  0  0  0  0  0
   36.5846    5.4293   12.5417 C   0  0  0  0  0  0
   37.0352    5.0776   11.4526 O   0  0  0  0  0  0
   35.0652    5.5773   12.6603 C   0  0  0  0  0  0
   40.4371   16.1081   14.5526 H   0  0  0  0  0  0
   41.4550   17.4863   14.9407 H   0  0  0  0  0  0
   43.9055   10.8917   17.0248 H   0  0  0  0  0  0
   43.3151    8.5247   17.3899 H   0  0  0  0  0  0
   41.1767    7.6186   16.5887 H   0  0  0  0  0  0
   40.0893   11.5273   15.1390 H   0  0  0  0  0  0
   38.6880    9.7631   14.7514 H   0  0  0  0  0  0
   39.2422    7.1147   15.9786 H   0  0  0  0  0  0
   36.8501    8.2180   14.4666 H   0  0  0  0  0  0
   36.9534    7.8806   16.1789 H   0  0  0  0  0  0
   35.7997    6.0265   15.0493 H   0  0  0  0  0  0
   37.3038    5.4496   15.6925 H   0  0  0  0  0  0
   39.2186    4.9817   14.3134 H   0  0  0  0  0  0
   39.2213    5.3098   12.6053 H   0  0  0  0  0  0
   40.4914    7.0585   13.8586 H   0  0  0  0  0  0
   39.1389    7.7371   12.9873 H   0  0  0  0  0  0
   34.6638    4.8759   13.3915 H   0  0  0  0  0  0
   34.5869    5.3621   11.7044 H   0  0  0  0  0  0
   34.7936    6.5925   12.9507 H   0  0  0  0  0  0
  1  2  2  0  0  0
  2  3  1  0  0  0
  2  4  1  0  0  0
  4  5  1  0  0  0
  4 31  1  0  0  0
  4 32  1  0  0  0
  5  6  1  0  0  0
  6 11  2  0  0  0
  6  7  1  0  0  0
  7  8  1  0  0  0
  7  9  2  0  0  0
  9 10  1  0  0  0
  9 15  1  0  0  0
 10 11  1  0  0  0
 11 12  1  0  0  0
 12 13  2  0  0  0
 12 14  1  0  0  0
 15 20  1  0  0  0
 15 16  2  0  0  0
 16 17  1  0  0  0
 16 33  1  0  0  0
 17 18  2  0  0  0
 17 34  1  0  0  0
 18 19  1  0  0  0
 18 35  1  0  0  0
 19 20  2  0  0  0
 19 21  1  0  0  0
 20 36  1  0  0  0
 21 22  1  0  0  0
 21 37  1  0  0  0
 22 27  1  0  0  0
 22 23  1  0  0  0
 22 38  1  0  0  0
 23 24  1  0  0  0
 23 39  1  0  0  0
 23 40  1  0  0  0
 24 25  1  0  0  0
 24 41  1  0  0  0
 24 42  1  0  0  0
 25 26  1  0  0  0
 25 28  1  0  0  0
 26 27  1  0  0  0
 26 43  1  0  0  0
 26 44  1  0  0  0
 27 45  1  0  0  0
 27 46  1  0  0  0
 28 29  2  0  0  0
 28 30  1  0  0  0
 30 47  1  0  0  0
 30 48  1  0  0  0
 30 49  1  0  0  0
M  CHG  2   3  -1  14  -1
M  END
> <s_m_entry_id>
460

> <i_f3d_flags>
0

> <r_epik_Ionization_Penalty>
  0.0007

> <r_epik_State_Penalty>
  0.0004

> <i_epik_Tot_Q>
-2

> <s_m_job_name>
glide-dock_SP_ptp1b_no_cons

> <r_i_docking_score>
-8.35771223321836

> <r_i_glide_gscore>
-8.35811223321836

> <r_i_glide_emodel>
-114.824295500517

$$$$
lig_23469
                    3D
 Schrodinger Suite 2021-4.
 41 43  0  0  1  0            999 V2000
   41.3838   17.4863   11.5905 O   0  0  0  0  0  0
   40.5654   17.4656   12.5416 C   0  0  0  0  0  0
   39.3830   17.8848   12.4941 O   0  5  0  0  0  0
   41.0397   16.8882   13.8731 C   0  0  0  0  0  0
   42.2196   16.1243   13.6716 O   0  0  0  0  0  0
   42.4545   15.1929   14.6180 C   0  0  0  0  0  0
   41.8936   13.8945   14.6180 C   0  0  0  0  0  0
   40.6640   13.4711   13.2462 Br  0  0  0  0  0  0
   42.3285   13.0557   15.6225 C   0  0  0  0  0  0
   43.3984   13.9449   16.6744 S   0  0  0  0  0  0
   43.2700   15.3828   15.6950 C   0  0  0  0  0  0
   44.0100   16.5668   16.1199 C   0  0  0  0  0  0
   44.4288   16.6664   17.2918 O   0  0  0  0  0  0
   44.1834   17.4866   15.2935 O   0  5  0  0  0  0
   42.0699   11.6452   15.9329 C   0  0  0  0  0  0
   42.9823   10.8811   16.6999 C   0  0  0  0  0  0
   42.7272    9.5285   16.9952 C   0  0  0  0  0  0
   41.5730    8.9010   16.4938 C   0  0  0  0  0  0
   40.6686    9.6347   15.6937 C   0  0  0  0  0  0
   40.9093   10.9999   15.4623 C   0  0  0  0  0  0
   39.4965    9.0772   15.1204 N   0  0  0  0  0  0
   39.3275    7.8152   14.6821 C   0  0  0  0  0  0
   40.1758    6.9303   14.7745 O   0  0  0  0  0  0
   37.9746    7.5018   14.1084 C   0  0  0  0  0  0
   37.4649    6.1875   14.2140 C   0  0  0  0  0  0
   36.2093    5.8617   13.6689 C   0  0  0  0  0  0
   35.4540    6.8477   13.0101 C   0  0  0  0  0  0
   35.9534    8.1589   12.8937 C   0  0  0  0  0  0
   37.2143    8.4823   13.4276 C   0  0  0  0  0  0
   41.2432   17.7018   14.5705 H   0  0  0  0  0  0
   40.2374   16.2851   14.3011 H   0  0  0  0  0  0
   43.8943   11.3204   17.0771 H   0  0  0  0  0  0
   43.4287    8.9669   17.5935 H   0  0  0  0  0  0
   41.3998    7.8607   16.7259 H   0  0  0  0  0  0
   40.1818   11.5516   14.8973 H   0  0  0  0  0  0
   38.7595    9.7303   14.8930 H   0  0  0  0  0  0
   38.0376    5.4201   14.7163 H   0  0  0  0  0  0
   35.8288    4.8542   13.7580 H   0  0  0  0  0  0
   34.4950    6.5888   12.5959 H   0  0  0  0  0  0
   35.3812    8.9180   12.3812 H   0  0  0  0  0  0
   37.5883    9.4863   13.2944 H   0  0  0  0  0  0
  1  2  2  0  0  0
  2  3  1  0  0  0
  2  4  1  0  0  0
  4  5  1  0  0  0
  4 30  1  0  0  0
  4 31  1  0  0  0
  5  6  1  0  0  0
  6 11  2  0  0  0
  6  7  1  0  0  0
  7  8  1  0  0  0
  7  9  2  0  0  0
  9 10  1  0  0  0
  9 15  1  0  0  0
 10 11  1  0  0  0
 11 12  1  0  0  0
 12 13  2  0  0  0
 12 14  1  0  0  0
 15 20  1  0  0  0
 15 16  2  0  0  0
 16 17  1  0  0  0
 16 32  1  0  0  0
 17 18  2  0  0  0
 17 33  1  0  0  0
 18 19  1  0  0  0
 18 34  1  0  0  0
 19 20  2  0  0  0
 19 21  1  0  0  0
 20 35  1  0  0  0
 21 22  1  0  0  0
 21 36  1  0  0  0
 22 23  2  0  0  0
 22 24  1  0  0  0
 24 29  1  0  0  0
 24 25  2  0  0  0
 25 26  1  0  0  0
 25 37  1  0  0  0
 26 27  2  0  0  0
 26 38  1  0  0  0
 27 28  1  0  0  0
 27 39  1  0  0  0
 28 29  2  0  0  0
 28 40  1  0  0  0
 29 41  1  0  0  0
M  CHG  2   3  -1  14  -1
M  END
> <s_m_entry_id>
461

> <i_f3d_flags>
0

> <r_epik_Ionization_Penalty>
  0.0001

> <r_epik_State_Penalty>
  0.0000

> <i_epik_Tot_Q>
-2

> <s_m_job_name>
glide-dock_SP_ptp1b_no_cons

> <r_lp_tautomer_probability>
1

> <r_i_docking_score>
-8.5414458801921

> <r_i_glide_gscore>
-8.5414458801921

> <r_i_glide_emodel>
-111.904226935975

$$$$
lig_23471
                    3D
 Schrodinger Suite 2021-4.
 35 36  0  0  1  0            999 V2000
   41.3887   17.4862   11.8662 O   0  0  0  0  0  0
   40.5679   17.3434   12.8039 C   0  0  0  0  0  0
   39.4398   17.8863   12.8349 O   0  5  0  0  0  0
   40.9423   16.4661   14.0077 C   0  0  0  0  0  0
   42.0633   15.6293   13.7361 O   0  0  0  0  0  0
   42.4503   14.8636   14.7858 C   0  0  0  0  0  0
   42.0811   13.5047   14.9794 C   0  0  0  0  0  0
   40.9837   12.6864   13.6940 Br  0  0  0  0  0  0
   42.5865   12.8771   16.0955 C   0  0  0  0  0  0
   43.5790   14.0209   16.9533 S   0  0  0  0  0  0
   43.2735   15.2851   15.7910 C   0  0  0  0  0  0
   43.9139   16.5661   16.0650 C   0  0  0  0  0  0
   43.7904   17.5062   15.2521 O   0  0  0  0  0  0
   44.5838   16.6863   17.1099 O   0  5  0  0  0  0
   42.4609   11.5137   16.6490 C   0  0  0  0  0  0
   41.4765   10.5928   16.2114 C   0  0  0  0  0  0
   41.3929    9.2937   16.7499 C   0  0  0  0  0  0
   42.2786    8.8892   17.7627 C   0  0  0  0  0  0
   43.2514    9.7937   18.2305 C   0  0  0  0  0  0
   43.3376   11.0815   17.6757 C   0  0  0  0  0  0
   44.1090    9.4677   19.3023 N   0  0  0  0  0  0
   44.8824    8.3282   19.3780 C   0  0  0  0  0  0
   45.0314    7.4864   18.4939 O   0  0  0  0  0  0
   45.4873    8.3125   20.5719 O   0  0  0  0  0  0
   46.3088    7.2165   20.9296 C   0  0  0  0  0  0
   41.1434   17.1187   14.8584 H   0  0  0  0  0  0
   40.0852   15.8477   14.2745 H   0  0  0  0  0  0
   40.7459   10.8558   15.4677 H   0  0  0  0  0  0
   40.6332    8.6117   16.3970 H   0  0  0  0  0  0
   42.1885    7.9018   18.1933 H   0  0  0  0  0  0
   44.1079   11.7290   18.0641 H   0  0  0  0  0  0
   44.2205   10.1308   20.0547 H   0  0  0  0  0  0
   46.7001    7.3605   21.9366 H   0  0  0  0  0  0
   45.7383    6.2867   20.9162 H   0  0  0  0  0  0
   47.1535    7.1234   20.2464 H   0  0  0  0  0  0
  1  2  2  0  0  0
  2  3  1  0  0  0
  2  4  1  0  0  0
  4  5  1  0  0  0
  4 26  1  0  0  0
  4 27  1  0  0  0
  5  6  1  0  0  0
  6 11  2  0  0  0
  6  7  1  0  0  0
  7  8  1  0  0  0
  7  9  2  0  0  0
  9 10  1  0  0  0
  9 15  1  0  0  0
 10 11  1  0  0  0
 11 12  1  0  0  0
 12 13  2  0  0  0
 12 14  1  0  0  0
 15 20  1  0  0  0
 15 16  2  0  0  0
 16 17  1  0  0  0
 16 28  1  0  0  0
 17 18  2  0  0  0
 17 29  1  0  0  0
 18 19  1  0  0  0
 18 30  1  0  0  0
 19 20  2  0  0  0
 19 21  1  0  0  0
 20 31  1  0  0  0
 21 22  1  0  0  0
 21 32  1  0  0  0
 22 23  2  0  0  0
 22 24  1  0  0  0
 24 25  1  0  0  0
 25 33  1  0  0  0
 25 34  1  0  0  0
 25 35  1  0  0  0
M  CHG  2   3  -1  14  -1
M  END
> <s_m_entry_id>
462

> <i_f3d_flags>
0

> <r_epik_Ionization_Penalty>
  0.0001

> <r_epik_State_Penalty>
  0.0000

> <i_epik_Tot_Q>
-2

> <s_m_job_name>
glide-dock_SP_ptp1b_no_cons

> <r_lp_tautomer_probability>
1

> <r_i_docking_score>
-7.64930242957211

> <r_i_glide_gscore>
-7.64930242957211

> <r_i_glide_emodel>
-99.0968510294841

$$$$
lig_23467
                    3D
 Schrodinger Suite 2021-4.
 31 32  0  0  1  0            999 V2000
   41.3839   17.4863   11.6318 O   0  0  0  0  0  0
   40.5364   17.4057   12.5504 C   0  0  0  0  0  0
   39.3833   17.8863   12.4944 O   0  5  0  0  0  0
   40.9273   16.6773   13.8353 C   0  0  0  0  0  0
   42.1002   15.9070   13.6208 O   0  0  0  0  0  0
   42.3759   15.0287   14.6062 C   0  0  0  0  0  0
   41.8846   13.6999   14.6505 C   0  0  0  0  0  0
   40.7181   13.0864   13.2940 Br  0  0  0  0  0  0
   42.3307   12.9378   15.7009 C   0  0  0  0  0  0
   43.3838   13.8969   16.7084 S   0  0  0  0  0  0
   43.1577   15.3079   15.6940 C   0  0  0  0  0  0
   43.7922   16.5586   16.1200 C   0  0  0  0  0  0
   43.9176   17.4864   15.2939 O   0  0  0  0  0  0
   44.1838   16.6863   17.2991 O   0  5  0  0  0  0
   42.0631   11.5506   16.0764 C   0  0  0  0  0  0
   43.0938   10.7381   16.5974 C   0  0  0  0  0  0
   42.8347    9.4092   16.9781 C   0  0  0  0  0  0
   41.5453    8.8672   16.8263 C   0  0  0  0  0  0
   40.4977    9.6604   16.2987 C   0  0  0  0  0  0
   40.7727   10.9948   15.9388 C   0  0  0  0  0  0
   39.2053    9.2163   16.1160 O   0  0  0  0  0  0
   38.9250    7.8515   16.3911 C   0  0  0  0  0  0
   41.1000   17.4111   14.6242 H   0  0  0  0  0  0
   40.0966   16.0439   14.1508 H   0  0  0  0  0  0
   44.0943   11.1309   16.7102 H   0  0  0  0  0  0
   43.6301    8.7994   17.3804 H   0  0  0  0  0  0
   41.3843    7.8425   17.1244 H   0  0  0  0  0  0
   39.9657   11.5997   15.5559 H   0  0  0  0  0  0
   37.8808    7.6445   16.1571 H   0  0  0  0  0  0
   39.5380    7.1870   15.7802 H   0  0  0  0  0  0
   39.0796    7.6178   17.4455 H   0  0  0  0  0  0
  1  2  2  0  0  0
  2  3  1  0  0  0
  2  4  1  0  0  0
  4  5  1  0  0  0
  4 23  1  0  0  0
  4 24  1  0  0  0
  5  6  1  0  0  0
  6 11  2  0  0  0
  6  7  1  0  0  0
  7  8  1  0  0  0
  7  9  2  0  0  0
  9 10  1  0  0  0
  9 15  1  0  0  0
 10 11  1  0  0  0
 11 12  1  0  0  0
 12 13  2  0  0  0
 12 14  1  0  0  0
 15 20  1  0  0  0
 15 16  2  0  0  0
 16 17  1  0  0  0
 16 25  1  0  0  0
 17 18  2  0  0  0
 17 26  1  0  0  0
 18 19  1  0  0  0
 18 27  1  0  0  0
 19 20  2  0  0  0
 19 21  1  0  0  0
 20 28  1  0  0  0
 21 22  1  0  0  0
 22 29  1  0  0  0
 22 30  1  0  0  0
 22 31  1  0  0  0
M  CHG  2   3  -1  14  -1
M  END
> <s_m_entry_id>
463

> <i_f3d_flags>
0

> <r_epik_Ionization_Penalty>
  0.0001

> <r_epik_State_Penalty>
  0.0000

> <i_epik_Tot_Q>
-2

> <s_m_job_name>
glide-dock_SP_ptp1b_no_cons

> <r_lp_tautomer_probability>
1

> <r_i_docking_score>
-7.64143714226314

> <r_i_glide_gscore>
-7.64143714226314

> <r_i_glide_emodel>
-91.1219219919796

$$$$
lig_23486
                    3D
 Schrodinger Suite 2021-4.
 60 63  0  0  1  0            999 V2000
   41.5977   17.4862   11.9633 O   0  0  0  0  0  0
   40.7643   17.3714   12.8939 C   0  0  0  0  0  0
   39.6236   17.8864   12.8936 O   0  5  0  0  0  0
   41.1550   16.5611   14.1326 C   0  0  0  0  0  0
   42.3007   15.7579   13.8753 O   0  0  0  0  0  0
   42.5111   14.7857   14.7909 C   0  0  0  0  0  0
   41.9651   13.4732   14.6932 C   0  0  0  0  0  0
   40.9838   13.1289   13.3449 Cl  0  0  0  0  0  0
   42.3248   12.6329   15.7248 C   0  0  0  0  0  0
   43.3823   13.4678   16.8430 S   0  0  0  0  0  0
   43.2592   14.9540   15.9293 C   0  0  0  0  0  0
   43.9261   16.1475   16.4739 C   0  0  0  0  0  0
   44.1926   16.2216   17.6925 O   0  0  0  0  0  0
   44.1838   17.0864   15.6940 O   0  5  0  0  0  0
   41.9417   11.2407   15.9930 C   0  0  0  0  0  0
   42.8026   10.3385   16.6587 C   0  0  0  0  0  0
   42.4037    9.0058   16.8938 C   0  0  0  0  0  0
   41.1505    8.5419   16.4427 C   0  0  0  0  0  0
   40.2748    9.4305   15.7825 C   0  0  0  0  0  0
   40.6783   10.7650   15.5868 C   0  0  0  0  0  0
   38.9939    9.0869   15.3257 N   0  0  0  0  0  0
   38.5621    7.7292   15.0241 C   0  0  0  0  0  0
   37.0256    7.6905   15.0778 C   0  0  0  0  0  0
   36.4606    6.3339   14.6419 C   0  0  0  0  0  0
   36.9518    5.9934   13.2981 N   0  0  1  0  0  0
   38.4219    5.9490   13.1809 C   0  0  0  0  0  0
   39.0362    7.2939   13.6226 C   0  0  0  0  0  0
   35.9339    5.1053   12.2107 S   0  0  0  0  0  0
   34.5838    5.6716   12.3318 O   0  0  0  0  0  0
   36.5832    5.0849   10.8941 O   0  0  0  0  0  0
   35.9212    3.4046   12.9259 C   0  0  0  0  0  0
   36.8633    2.4872   12.1702 C   0  0  0  0  0  0
   38.1263    2.1657   12.7093 C   0  0  0  0  0  0
   38.9825    1.2842   12.0212 C   0  0  0  0  0  0
   38.5833    0.7310   10.7888 C   0  0  0  0  0  0
   37.3309    1.0629   10.2406 C   0  0  0  0  0  0
   36.4686    1.9337   10.9328 C   0  0  0  0  0  0
   41.3619   17.2475   14.9555 H   0  0  0  0  0  0
   40.3043   15.9441   14.4292 H   0  0  0  0  0  0
   43.7787   10.6594   16.9924 H   0  0  0  0  0  0
   43.0693    8.3292   17.4089 H   0  0  0  0  0  0
   40.8755    7.5145   16.6254 H   0  0  0  0  0  0
   39.9918   11.4448   15.1125 H   0  0  0  0  0  0
   38.5280    9.8116   14.7886 H   0  0  0  0  0  0
   38.9487    7.0357   15.7709 H   0  0  0  0  0  0
   36.6831    7.9200   16.0871 H   0  0  0  0  0  0
   36.6122    8.4652   14.4297 H   0  0  0  0  0  0
   36.7541    5.5509   15.3422 H   0  0  0  0  0  0
   35.3714    6.3746   14.6461 H   0  0  0  0  0  0
   38.8075    5.1322   13.7918 H   0  0  0  0  0  0
   38.7099    5.7354   12.1513 H   0  0  0  0  0  0
   38.7625    8.0593   12.8952 H   0  0  0  0  0  0
   40.1248    7.2267   13.5992 H   0  0  0  0  0  0
   36.1644    3.4557   13.9861 H   0  0  0  0  0  0
   34.9064    3.0161   12.8417 H   0  0  0  0  0  0
   38.4400    2.5799   13.6561 H   0  0  0  0  0  0
   39.9434    1.0272   12.4415 H   0  0  0  0  0  0
   39.2342    0.0421   10.2684 H   0  0  0  0  0  0
   37.0273    0.6369    9.2954 H   0  0  0  0  0  0
   35.5037    2.1726   10.5101 H   0  0  0  0  0  0
  1  2  2  0  0  0
  2  3  1  0  0  0
  2  4  1  0  0  0
  4  5  1  0  0  0
  4 38  1  0  0  0
  4 39  1  0  0  0
  5  6  1  0  0  0
  6 11  2  0  0  0
  6  7  1  0  0  0
  7  8  1  0  0  0
  7  9  2  0  0  0
  9 10  1  0  0  0
  9 15  1  0  0  0
 10 11  1  0  0  0
 11 12  1  0  0  0
 12 13  2  0  0  0
 12 14  1  0  0  0
 15 20  1  0  0  0
 15 16  2  0  0  0
 16 17  1  0  0  0
 16 40  1  0  0  0
 17 18  2  0  0  0
 17 41  1  0  0  0
 18 19  1  0  0  0
 18 42  1  0  0  0
 19 20  2  0  0  0
 19 21  1  0  0  0
 20 43  1  0  0  0
 21 22  1  0  0  0
 21 44  1  0  0  0
 22 27  1  0  0  0
 22 23  1  0  0  0
 22 45  1  0  0  0
 23 24  1  0  0  0
 23 46  1  0  0  0
 23 47  1  0  0  0
 24 25  1  0  0  0
 24 48  1  0  0  0
 24 49  1  0  0  0
 25 26  1  0  0  0
 25 28  1  0  0  0
 26 27  1  0  0  0
 26 50  1  0  0  0
 26 51  1  0  0  0
 27 52  1  0  0  0
 27 53  1  0  0  0
 28 29  2  0  0  0
 28 30  2  0  0  0
 28 31  1  0  0  0
 31 32  1  0  0  0
 31 54  1  0  0  0
 31 55  1  0  0  0
 32 37  1  0  0  0
 32 33  2  0  0  0
 33 34  1  0  0  0
 33 56  1  0  0  0
 34 35  2  0  0  0
 34 57  1  0  0  0
 35 36  1  0  0  0
 35 58  1  0  0  0
 36 37  2  0  0  0
 36 59  1  0  0  0
 37 60  1  0  0  0
M  CHG  2   3  -1  14  -1
M  END
> <s_m_entry_id>
464

> <i_f3d_flags>
0

> <r_epik_Ionization_Penalty>
  0.0005

> <r_epik_State_Penalty>
  0.0002

> <i_epik_Tot_Q>
-2

> <s_m_job_name>
glide-dock_SP_ptp1b_no_cons

> <r_i_docking_score>
-9.31940426885691

> <r_i_glide_gscore>
-9.3196042688569

> <r_i_glide_emodel>
-139.167294526459

$$$$
lig_23480
                    3D
 Schrodinger Suite 2021-4.
 53 55  0  0  1  0            999 V2000
   39.3831   17.8864   12.4983 O   0  0  0  0  0  0
   40.5355   17.4041   12.5555 C   0  0  0  0  0  0
   41.3840   17.4863   11.6383 O   0  5  0  0  0  0
   40.9240   16.6699   13.8383 C   0  0  0  0  0  0
   42.0966   15.8987   13.6223 O   0  0  0  0  0  0
   42.3761   15.0214   14.6083 C   0  0  0  0  0  0
   41.8901   13.6916   14.6526 C   0  0  0  0  0  0
   40.7238   13.0871   13.2940 Br  0  0  0  0  0  0
   42.3375   12.9246   15.7001 C   0  0  0  0  0  0
   43.3844   13.8897   16.7104 S   0  0  0  0  0  0
   43.1582   15.3017   15.6943 C   0  0  0  0  0  0
   43.7881   16.5568   16.1151 C   0  0  0  0  0  0
   43.9000   17.4864   15.2885 O   0  0  0  0  0  0
   44.1881   16.6863   17.2906 O   0  5  0  0  0  0
   42.0717   11.5288   16.0593 C   0  0  0  0  0  0
   43.0524   10.7382   16.6999 C   0  0  0  0  0  0
   42.7853    9.3976   17.0387 C   0  0  0  0  0  0
   41.5430    8.8173   16.7187 C   0  0  0  0  0  0
   40.5531    9.5863   16.0673 C   0  0  0  0  0  0
   40.8256   10.9336   15.7677 C   0  0  0  0  0  0
   39.2969    9.0848   15.6934 N   0  0  0  0  0  0
   38.8961    7.7109   15.9665 C   0  0  0  0  0  0
   39.4459    6.6946   14.9449 C   0  0  0  0  0  0
   39.1166    5.2540   15.4016 C   0  0  0  0  0  0
   39.5034    4.2063   14.3427 C   0  0  0  0  0  0
   38.8559    4.5621   13.0811 N   0  0  0  0  0  0
   39.3367    5.8400   12.5444 C   0  0  0  0  0  0
   38.9172    6.9595   13.5130 C   0  0  0  0  0  0
   37.7846    3.8147   12.5741 C   0  0  0  0  0  0
   37.3479    2.7704   13.0587 O   0  0  0  0  0  0
   37.2641    4.3916   11.4706 O   0  0  0  0  0  0
   36.1967    3.7527   10.7892 C   0  0  0  0  0  0
   41.0959   17.4007   14.6300 H   0  0  0  0  0  0
   40.0924   16.0359   14.1499 H   0  0  0  0  0  0
   44.0218   11.1529   16.9357 H   0  0  0  0  0  0
   43.5420    8.8059   17.5318 H   0  0  0  0  0  0
   41.3734    7.7825   16.9737 H   0  0  0  0  0  0
   40.0469   11.5184   15.3083 H   0  0  0  0  0  0
   38.7137    9.6481   15.0857 H   0  0  0  0  0  0
   39.1947    7.4372   16.9788 H   0  0  0  0  0  0
   37.8070    7.6743   15.9636 H   0  0  0  0  0  0
   40.5334    6.7791   14.9145 H   0  0  0  0  0  0
   39.6309    5.0345   16.3373 H   0  0  0  0  0  0
   38.0493    5.1700   15.6107 H   0  0  0  0  0  0
   40.5839    4.1877   14.2011 H   0  0  0  0  0  0
   39.2278    3.2074   14.6840 H   0  0  0  0  0  0
   40.4254    5.8071   12.4732 H   0  0  0  0  0  0
   38.9863    6.0474   11.5357 H   0  0  0  0  0  0
   37.8292    7.0366   13.5271 H   0  0  0  0  0  0
   39.2910    7.9164   13.1472 H   0  0  0  0  0  0
   35.8848    4.3550    9.9357 H   0  0  0  0  0  0
   36.5038    2.7739   10.4184 H   0  0  0  0  0  0
   35.3358    3.6225   11.4464 H   0  0  0  0  0  0
  1  2  2  0  0  0
  2  3  1  0  0  0
  2  4  1  0  0  0
  4  5  1  0  0  0
  4 33  1  0  0  0
  4 34  1  0  0  0
  5  6  1  0  0  0
  6 11  2  0  0  0
  6  7  1  0  0  0
  7  8  1  0  0  0
  7  9  2  0  0  0
  9 10  1  0  0  0
  9 15  1  0  0  0
 10 11  1  0  0  0
 11 12  1  0  0  0
 12 13  2  0  0  0
 12 14  1  0  0  0
 15 20  1  0  0  0
 15 16  2  0  0  0
 16 17  1  0  0  0
 16 35  1  0  0  0
 17 18  2  0  0  0
 17 36  1  0  0  0
 18 19  1  0  0  0
 18 37  1  0  0  0
 19 20  2  0  0  0
 19 21  1  0  0  0
 20 38  1  0  0  0
 21 22  1  0  0  0
 21 39  1  0  0  0
 22 23  1  0  0  0
 22 40  1  0  0  0
 22 41  1  0  0  0
 23 28  1  0  0  0
 23 24  1  0  0  0
 23 42  1  0  0  0
 24 25  1  0  0  0
 24 43  1  0  0  0
 24 44  1  0  0  0
 25 26  1  0  0  0
 25 45  1  0  0  0
 25 46  1  0  0  0
 26 27  1  0  0  0
 26 29  1  0  0  0
 27 28  1  0  0  0
 27 47  1  0  0  0
 27 48  1  0  0  0
 28 49  1  0  0  0
 28 50  1  0  0  0
 29 30  2  0  0  0
 29 31  1  0  0  0
 31 32  1  0  0  0
 32 51  1  0  0  0
 32 52  1  0  0  0
 32 53  1  0  0  0
M  CHG  2   3  -1  14  -1
M  END
> <s_m_entry_id>
465

> <i_f3d_flags>
0

> <r_epik_Ionization_Penalty>
  0.0017

> <r_epik_State_Penalty>
  0.0010

> <i_epik_Tot_Q>
-2

> <s_m_job_name>
glide-dock_SP_ptp1b_no_cons

> <r_i_docking_score>
-8.00792220277728

> <r_i_glide_gscore>
-8.00892220277728

> <r_i_glide_emodel>
-114.671800398123

$$$$
lig_23470
                    3D
 Schrodinger Suite 2021-4.
 42 43  0  0  1  0            999 V2000
   41.3979   17.4863   11.9033 O   0  0  0  0  0  0
   40.6157   17.4071   12.8802 C   0  0  0  0  0  0
   39.4591   17.8863   12.8939 O   0  5  0  0  0  0
   41.0874   16.6981   14.1575 C   0  0  0  0  0  0
   42.2852   15.9570   13.9380 O   0  0  0  0  0  0
   42.5157   14.9822   14.8504 C   0  0  0  0  0  0
   41.9820   13.6729   14.7651 C   0  0  0  0  0  0
   40.8726   13.2439   13.2941 Br  0  0  0  0  0  0
   42.3521   12.8033   15.7656 C   0  0  0  0  0  0
   43.3838   13.6403   16.8957 S   0  0  0  0  0  0
   43.2998   15.1220   15.9649 C   0  0  0  0  0  0
   44.0274   16.2863   16.4692 C   0  0  0  0  0  0
   44.1838   17.2499   15.6927 O   0  0  0  0  0  0
   44.4521   16.3074   17.6442 O   0  5  0  0  0  0
   42.0261   11.3929   16.0066 C   0  0  0  0  0  0
   42.9160   10.5283   16.6867 C   0  0  0  0  0  0
   42.5833    9.1744   16.8993 C   0  0  0  0  0  0
   41.3744    8.6499   16.4024 C   0  0  0  0  0  0
   40.4813    9.4946   15.7062 C   0  0  0  0  0  0
   40.8058   10.8546   15.5534 C   0  0  0  0  0  0
   39.2400    9.0864   15.1498 N   0  0  0  0  0  0
   38.8010    7.8555   14.8494 C   0  0  0  0  0  0
   39.4180    6.8086   15.0458 O   0  0  0  0  0  0
   37.5807    7.9057   14.2944 N   0  0  0  0  0  0
   36.8019    6.7579   13.8405 C   0  0  0  0  0  0
   35.6661    7.2531   12.9364 C   0  0  0  0  0  0
   36.2454    5.9596   15.0338 C   0  0  0  0  0  0
   41.2606   17.4447   14.9341 H   0  0  0  0  0  0
   40.2816   16.0510   14.5075 H   0  0  0  0  0  0
   43.8650   10.8936   17.0514 H   0  0  0  0  0  0
   43.2684    8.5299   17.4280 H   0  0  0  0  0  0
   41.1533    7.6065   16.5673 H   0  0  0  0  0  0
   40.0944   11.4960   15.0657 H   0  0  0  0  0  0
   38.6489    9.8496   14.8462 H   0  0  0  0  0  0
   37.1632    8.8136   14.1519 H   0  0  0  0  0  0
   37.4528    6.1071   13.2519 H   0  0  0  0  0  0
   35.0909    6.4187   12.5339 H   0  0  0  0  0  0
   34.9836    7.8938   13.4916 H   0  0  0  0  0  0
   36.0476    7.8335   12.0972 H   0  0  0  0  0  0
   35.6472    5.1142   14.6906 H   0  0  0  0  0  0
   37.0464    5.5558   15.6547 H   0  0  0  0  0  0
   35.6126    6.5810   15.6688 H   0  0  0  0  0  0
  1  2  2  0  0  0
  2  3  1  0  0  0
  2  4  1  0  0  0
  4  5  1  0  0  0
  4 28  1  0  0  0
  4 29  1  0  0  0
  5  6  1  0  0  0
  6 11  2  0  0  0
  6  7  1  0  0  0
  7  8  1  0  0  0
  7  9  2  0  0  0
  9 10  1  0  0  0
  9 15  1  0  0  0
 10 11  1  0  0  0
 11 12  1  0  0  0
 12 13  2  0  0  0
 12 14  1  0  0  0
 15 20  1  0  0  0
 15 16  2  0  0  0
 16 17  1  0  0  0
 16 30  1  0  0  0
 17 18  2  0  0  0
 17 31  1  0  0  0
 18 19  1  0  0  0
 18 32  1  0  0  0
 19 20  2  0  0  0
 19 21  1  0  0  0
 20 33  1  0  0  0
 21 22  1  0  0  0
 21 34  1  0  0  0
 22 23  2  0  0  0
 22 24  1  0  0  0
 24 25  1  0  0  0
 24 35  1  0  0  0
 25 26  1  0  0  0
 25 27  1  0  0  0
 25 36  1  0  0  0
 26 37  1  0  0  0
 26 38  1  0  0  0
 26 39  1  0  0  0
 27 40  1  0  0  0
 27 41  1  0  0  0
 27 42  1  0  0  0
M  CHG  2   3  -1  14  -1
M  END
> <s_m_entry_id>
466

> <i_f3d_flags>
0

> <r_epik_Ionization_Penalty>
  0.0001

> <r_epik_State_Penalty>
  0.0000

> <i_epik_Tot_Q>
-2

> <s_m_job_name>
glide-dock_SP_ptp1b_no_cons

> <r_lp_tautomer_probability>
1

> <r_i_docking_score>
-8.25788912974268

> <r_i_glide_gscore>
-8.25788912974268

> <r_i_glide_emodel>
-109.467444239893

$$$$
lig_20669_2qbr
                    3D
 Schrodinger Suite 2021-4.
 42 44  0  0  1  0            999 V2000
   41.5859   17.4863   11.9348 O   0  0  0  0  0  0
   40.7808   17.4173   12.8940 C   0  0  0  0  0  0
   39.6206   17.8863   12.8848 O   0  5  0  0  0  0
   41.2333   16.7303   14.1855 C   0  0  0  0  0  0
   42.4228   15.9769   13.9792 O   0  0  0  0  0  0
   42.6155   14.9998   14.8930 C   0  0  0  0  0  0
   42.0578   13.6997   14.7981 C   0  0  0  0  0  0
   40.9838   13.2789   13.2940 Br  0  0  0  0  0  0
   42.3864   12.8345   15.8170 C   0  0  0  0  0  0
   43.3838   13.6755   16.9803 S   0  0  0  0  0  0
   43.3676   15.1392   16.0272 C   0  0  0  0  0  0
   44.1190   16.2863   16.5312 C   0  0  0  0  0  0
   44.2508   16.4579   17.7617 O   0  0  0  0  0  0
   44.5838   17.0863   15.6940 O   0  5  0  0  0  0
   42.0631   11.4231   16.0584 C   0  0  0  0  0  0
   42.9377   10.6016   16.8087 C   0  0  0  0  0  0
   42.6373    9.2471   17.0408 C   0  0  0  0  0  0
   41.4743    8.6784   16.4940 C   0  0  0  0  0  0
   40.5966    9.4707   15.7208 C   0  0  0  0  0  0
   40.8858   10.8375   15.5418 C   0  0  0  0  0  0
   39.4481    8.9512   15.1066 N   0  0  0  0  0  0
   39.4742    7.5487   14.7060 C   0  0  0  0  0  0
   38.2704    7.0585   13.9174 C   0  0  0  0  0  0
   38.3850    5.8602   13.1808 C   0  0  0  0  0  0
   37.2729    5.3353   12.4940 C   0  0  0  0  0  0
   36.0367    6.0076   12.5387 C   0  0  0  0  0  0
   35.9206    7.2133   13.2574 C   0  0  0  0  0  0
   37.0314    7.7380   13.9460 C   0  0  0  0  0  0
   41.4122   17.4864   14.9506 H   0  0  0  0  0  0
   40.4175   16.0976   14.5412 H   0  0  0  0  0  0
   43.8555   10.9981   17.2168 H   0  0  0  0  0  0
   43.3109    8.6370   17.6241 H   0  0  0  0  0  0
   41.2791    7.6320   16.6729 H   0  0  0  0  0  0
   40.1838   11.4352   14.9853 H   0  0  0  0  0  0
   38.9392    9.5786   14.4940 H   0  0  0  0  0  0
   40.3761    7.3635   14.1199 H   0  0  0  0  0  0
   39.5379    6.9225   15.5959 H   0  0  0  0  0  0
   39.3257    5.3280   13.1568 H   0  0  0  0  0  0
   37.3669    4.4093   11.9456 H   0  0  0  0  0  0
   35.1805    5.5953   12.0268 H   0  0  0  0  0  0
   34.9773    7.7343   13.2940 H   0  0  0  0  0  0
   36.9159    8.6520   14.5092 H   0  0  0  0  0  0
  1  2  2  0  0  0
  2  3  1  0  0  0
  2  4  1  0  0  0
  4  5  1  0  0  0
  4 29  1  0  0  0
  4 30  1  0  0  0
  5  6  1  0  0  0
  6 11  2  0  0  0
  6  7  1  0  0  0
  7  8  1  0  0  0
  7  9  2  0  0  0
  9 10  1  0  0  0
  9 15  1  0  0  0
 10 11  1  0  0  0
 11 12  1  0  0  0
 12 13  2  0  0  0
 12 14  1  0  0  0
 15 20  1  0  0  0
 15 16  2  0  0  0
 16 17  1  0  0  0
 16 31  1  0  0  0
 17 18  2  0  0  0
 17 32  1  0  0  0
 18 19  1  0  0  0
 18 33  1  0  0  0
 19 20  2  0  0  0
 19 21  1  0  0  0
 20 34  1  0  0  0
 21 22  1  0  0  0
 21 35  1  0  0  0
 22 23  1  0  0  0
 22 36  1  0  0  0
 22 37  1  0  0  0
 23 28  1  0  0  0
 23 24  2  0  0  0
 24 25  1  0  0  0
 24 38  1  0  0  0
 25 26  2  0  0  0
 25 39  1  0  0  0
 26 27  1  0  0  0
 26 40  1  0  0  0
 27 28  2  0  0  0
 27 41  1  0  0  0
 28 42  1  0  0  0
M  CHG  2   3  -1  14  -1
M  END
> <s_m_entry_id>
467

> <i_f3d_flags>
0

> <r_epik_Ionization_Penalty>
  0.0002

> <r_epik_State_Penalty>
  0.0000

> <i_epik_Tot_Q>
-2

> <s_m_job_name>
glide-dock_SP_ptp1b_no_cons

> <r_lp_tautomer_probability>
1

> <r_i_docking_score>
-8.35659290826876

> <r_i_glide_gscore>
-8.35659290826876

> <r_i_glide_emodel>
-112.899793175654

$$$$
lig_23485
                    3D
 Schrodinger Suite 2021-4.
 63 66  0  0  1  0            999 V2000
   41.1964   17.4863   11.6294 O   0  0  0  0  0  0
   40.3029   17.3332   12.4938 C   0  0  0  0  0  0
   39.3837   18.1464   12.7188 O   0  5  0  0  0  0
   40.2526   16.0161   13.2496 C   0  0  0  0  0  0
   41.4141   15.2431   12.9829 O   0  0  0  0  0  0
   42.0085   14.7713   14.0947 C   0  0  0  0  0  0
   41.7519   13.4730   14.6211 C   0  0  0  0  0  0
   40.8041   12.5620   13.9171 C   0  0  0  0  0  0
   42.8808   15.5048   14.8516 C   0  0  0  0  0  0
   43.3832   16.8816   14.7004 C   0  0  0  0  0  0
   43.8285   17.4863   15.6939 O   0  0  0  0  0  0
   43.3837   17.4093   13.5685 O   0  5  0  0  0  0
   43.4535   14.5798   16.2103 S   0  0  0  0  0  0
   42.4490   13.2091   15.7832 C   0  0  0  0  0  0
   42.4325   12.0325   16.6721 C   0  0  0  0  0  0
   42.7962   12.1508   18.0352 C   0  0  0  0  0  0
   42.7111   11.0516   18.9094 C   0  0  0  0  0  0
   42.2221    9.8177   18.4467 C   0  0  0  0  0  0
   41.8390    9.6703   17.1008 C   0  0  0  0  0  0
   42.0011   10.7621   16.2176 C   0  0  0  0  0  0
   41.2863    8.4435   16.7003 N   0  0  0  0  0  0
   40.4332    8.3276   15.5185 C   0  0  0  0  0  0
   40.0679    6.8632   15.2760 C   0  0  0  0  0  0
   39.2275    6.6708   13.9987 C   0  0  0  0  0  0
   38.0615    7.5789   13.9553 N   0  0  3  0  0  0
   38.2692    8.9764   14.3709 C   0  0  0  0  0  0
   39.1095    9.0953   15.6545 C   0  0  0  0  0  0
   36.5121    7.0424   13.3852 S   0  0  0  0  0  0
   35.7837    8.2218   12.8917 O   0  0  0  0  0  0
   36.7291    5.8915   12.4947 O   0  0  0  0  0  0
   35.6797    6.4801   14.9315 C   0  0  0  0  0  0
   36.2397    5.1562   15.4171 C   0  0  0  0  0  0
   35.8975    3.9532   14.7637 C   0  0  0  0  0  0
   36.4284    2.7283   15.2123 C   0  0  0  0  0  0
   37.2983    2.7003   16.3194 C   0  0  0  0  0  0
   37.6329    3.8972   16.9817 C   0  0  0  0  0  0
   37.1001    5.1216   16.5345 C   0  0  0  0  0  0
   40.1017   16.2217   14.3123 H   0  0  0  0  0  0
   39.3838   15.4660   12.8942 H   0  0  0  0  0  0
   40.1840   11.9951   14.6079 H   0  0  0  0  0  0
   40.1218   13.0977   13.2592 H   0  0  0  0  0  0
   41.3808   11.8864   13.2941 H   0  0  0  0  0  0
   43.1313   13.0932   18.4413 H   0  0  0  0  0  0
   42.9927   11.1652   19.9459 H   0  0  0  0  0  0
   42.1255    8.9915   19.1365 H   0  0  0  0  0  0
   41.7681   10.6183   15.1787 H   0  0  0  0  0  0
   41.1962    7.7198   17.4005 H   0  0  0  0  0  0
   40.9830    8.6884   14.6494 H   0  0  0  0  0  0
   40.9830    6.2860   15.2091 H   0  0  0  0  0  0
   39.5285    6.4674   16.1355 H   0  0  0  0  0  0
   39.8426    6.8557   13.1172 H   0  0  0  0  0  0
   38.8938    5.6346   13.9345 H   0  0  0  0  0  0
   38.7670    9.4862   13.5489 H   0  0  0  0  0  0
   37.3094    9.4737   14.5155 H   0  0  0  0  0  0
   38.5405    8.7132   16.5031 H   0  0  0  0  0  0
   39.2927   10.1491   15.8606 H   0  0  0  0  0  0
   35.7856    7.2619   15.6815 H   0  0  0  0  0  0
   34.6184    6.3682   14.7135 H   0  0  0  0  0  0
   35.2370    3.9653   13.9088 H   0  0  0  0  0  0
   36.1711    1.8100   14.7048 H   0  0  0  0  0  0
   37.7075    1.7607   16.6610 H   0  0  0  0  0  0
   38.2993    3.8759   17.8317 H   0  0  0  0  0  0
   37.3639    6.0338   17.0490 H   0  0  0  0  0  0
  1  2  2  0  0  0
  2  3  1  0  0  0
  2  4  1  0  0  0
  4  5  1  0  0  0
  4 38  1  0  0  0
  4 39  1  0  0  0
  5  6  1  0  0  0
  6  7  1  0  0  0
  6  9  2  0  0  0
  7 14  2  0  0  0
  7  8  1  0  0  0
  8 40  1  0  0  0
  8 41  1  0  0  0
  8 42  1  0  0  0
  9 10  1  0  0  0
  9 13  1  0  0  0
 10 11  2  0  0  0
 10 12  1  0  0  0
 13 14  1  0  0  0
 14 15  1  0  0  0
 15 20  1  0  0  0
 15 16  2  0  0  0
 16 17  1  0  0  0
 16 43  1  0  0  0
 17 18  2  0  0  0
 17 44  1  0  0  0
 18 19  1  0  0  0
 18 45  1  0  0  0
 19 20  2  0  0  0
 19 21  1  0  0  0
 20 46  1  0  0  0
 21 22  1  0  0  0
 21 47  1  0  0  0
 22 27  1  0  0  0
 22 23  1  0  0  0
 22 48  1  0  0  0
 23 24  1  0  0  0
 23 49  1  0  0  0
 23 50  1  0  0  0
 24 25  1  0  0  0
 24 51  1  0  0  0
 24 52  1  0  0  0
 25 26  1  0  0  0
 25 28  1  0  0  0
 26 27  1  0  0  0
 26 53  1  0  0  0
 26 54  1  0  0  0
 27 55  1  0  0  0
 27 56  1  0  0  0
 28 29  2  0  0  0
 28 30  2  0  0  0
 28 31  1  0  0  0
 31 32  1  0  0  0
 31 57  1  0  0  0
 31 58  1  0  0  0
 32 37  1  0  0  0
 32 33  2  0  0  0
 33 34  1  0  0  0
 33 59  1  0  0  0
 34 35  2  0  0  0
 34 60  1  0  0  0
 35 36  1  0  0  0
 35 61  1  0  0  0
 36 37  2  0  0  0
 36 62  1  0  0  0
 37 63  1  0  0  0
M  CHG  2   3  -1  12  -1
M  END
> <s_m_entry_id>
468

> <i_f3d_flags>
0

> <r_epik_Ionization_Penalty>
  0.0005

> <r_epik_State_Penalty>
  0.0002

> <i_epik_Tot_Q>
-2

> <s_m_job_name>
glide-dock_SP_ptp1b_no_cons

> <r_i_docking_score>
-8.56925559358909

> <r_i_glide_gscore>
-8.56945559358909

> <r_i_glide_emodel>
-130.110051732685

$$$$
lig_23474
                    3D
 Schrodinger Suite 2021-4.
 48 50  0  0  1  0            999 V2000
   41.3839   17.4863   11.6440 O   0  0  0  0  0  0
   40.5348   17.4060   12.5615 C   0  0  0  0  0  0
   39.3817   17.8861   12.5047 O   0  5  0  0  0  0
   40.9247   16.6744   13.8447 C   0  0  0  0  0  0
   42.0988   15.9071   13.6275 O   0  0  0  0  0  0
   42.3764   15.0259   14.6100 C   0  0  0  0  0  0
   41.8847   13.6978   14.6518 C   0  0  0  0  0  0
   40.7195   13.0879   13.2940 Br  0  0  0  0  0  0
   42.3242   12.9311   15.7015 C   0  0  0  0  0  0
   43.3838   13.8863   16.7093 S   0  0  0  0  0  0
   43.1615   15.3018   15.6953 C   0  0  0  0  0  0
   43.7934   16.5562   16.1197 C   0  0  0  0  0  0
   43.9115   17.4865   15.2940 O   0  0  0  0  0  0
   44.1851   16.6858   17.2980 O   0  5  0  0  0  0
   42.0392   11.5382   16.0526 C   0  0  0  0  0  0
   43.0297   10.7081   16.6229 C   0  0  0  0  0  0
   42.7471    9.3612   16.9261 C   0  0  0  0  0  0
   41.4797    8.8175   16.6397 C   0  0  0  0  0  0
   40.4781    9.6314   16.0678 C   0  0  0  0  0  0
   40.7641   10.9841   15.8075 C   0  0  0  0  0  0
   39.1990    9.1630   15.7359 N   0  0  0  0  0  0
   38.9784    7.7389   15.5309 C   0  0  0  0  0  0
   37.5618    7.4601   14.9926 C   0  0  0  0  0  0
   37.3389    8.0673   13.5904 C   0  0  0  0  0  0
   35.9171    7.7896   13.0804 C   0  0  0  0  0  0
   35.6224    6.2835   13.0477 C   0  0  0  0  0  0
   35.8526    5.6523   14.4301 C   0  0  0  0  0  0
   37.2685    5.9467   14.9554 C   0  0  0  0  0  0
   41.0934   17.4057   14.6370 H   0  0  0  0  0  0
   40.0933   16.0377   14.1539 H   0  0  0  0  0  0
   44.0186   11.0949   16.8233 H   0  0  0  0  0  0
   43.5125    8.7353   17.3621 H   0  0  0  0  0  0
   41.2941    7.7778   16.8646 H   0  0  0  0  0  0
   39.9816   11.6050   15.4023 H   0  0  0  0  0  0
   38.6542    9.7754   15.1402 H   0  0  0  0  0  0
   39.7294    7.3442   14.8446 H   0  0  0  0  0  0
   39.1099    7.2245   16.4829 H   0  0  0  0  0  0
   36.8476    7.9165   15.6805 H   0  0  0  0  0  0
   37.5051    9.1433   13.6069 H   0  0  0  0  0  0
   38.0702    7.6564   12.8941 H   0  0  0  0  0  0
   35.1992    8.2858   13.7292 H   0  0  0  0  0  0
   35.7812    8.2285   12.0943 H   0  0  0  0  0  0
   34.5939    6.1107   12.7294 H   0  0  0  0  0  0
   36.2648    5.7992   12.3113 H   0  0  0  0  0  0
   35.1168    6.0419   15.1346 H   0  0  0  0  0  0
   35.6926    4.5747   14.3801 H   0  0  0  0  0  0
   38.0020    5.4432   14.3243 H   0  0  0  0  0  0
   37.3816    5.5208   15.9536 H   0  0  0  0  0  0
  1  2  2  0  0  0
  2  3  1  0  0  0
  2  4  1  0  0  0
  4  5  1  0  0  0
  4 29  1  0  0  0
  4 30  1  0  0  0
  5  6  1  0  0  0
  6 11  2  0  0  0
  6  7  1  0  0  0
  7  8  1  0  0  0
  7  9  2  0  0  0
  9 10  1  0  0  0
  9 15  1  0  0  0
 10 11  1  0  0  0
 11 12  1  0  0  0
 12 13  2  0  0  0
 12 14  1  0  0  0
 15 20  1  0  0  0
 15 16  2  0  0  0
 16 17  1  0  0  0
 16 31  1  0  0  0
 17 18  2  0  0  0
 17 32  1  0  0  0
 18 19  1  0  0  0
 18 33  1  0  0  0
 19 20  2  0  0  0
 19 21  1  0  0  0
 20 34  1  0  0  0
 21 22  1  0  0  0
 21 35  1  0  0  0
 22 23  1  0  0  0
 22 36  1  0  0  0
 22 37  1  0  0  0
 23 28  1  0  0  0
 23 24  1  0  0  0
 23 38  1  0  0  0
 24 25  1  0  0  0
 24 39  1  0  0  0
 24 40  1  0  0  0
 25 26  1  0  0  0
 25 41  1  0  0  0
 25 42  1  0  0  0
 26 27  1  0  0  0
 26 43  1  0  0  0
 26 44  1  0  0  0
 27 28  1  0  0  0
 27 45  1  0  0  0
 27 46  1  0  0  0
 28 47  1  0  0  0
 28 48  1  0  0  0
M  CHG  2   3  -1  14  -1
M  END
> <s_m_entry_id>
469

> <i_f3d_flags>
0

> <r_epik_Ionization_Penalty>
  0.0033

> <r_epik_State_Penalty>
  0.0023

> <i_epik_Tot_Q>
-2

> <s_m_job_name>
glide-dock_SP_ptp1b_no_cons

> <r_i_docking_score>
-8.03073391422198

> <r_i_glide_gscore>
-8.03303391422198

> <r_i_glide_emodel>
-107.554868066447

$$$$
lig_20667_2qbp
                    3D
 Schrodinger Suite 2021-4.
 60 63  0  0  1  0            999 V2000
   41.3838   17.4863   11.6332 O   0  0  0  0  0  0
   40.5394   17.4075   12.5550 C   0  0  0  0  0  0
   39.3839   17.8862   12.5029 O   0  5  0  0  0  0
   40.9406   16.6820   13.8395 C   0  0  0  0  0  0
   42.1240   15.9243   13.6268 O   0  0  0  0  0  0
   42.3995   15.0393   14.6074 C   0  0  0  0  0  0
   41.8974   13.7166   14.6521 C   0  0  0  0  0  0
   40.7319   13.1079   13.2940 Br  0  0  0  0  0  0
   42.3140   12.9520   15.7123 C   0  0  0  0  0  0
   43.3838   13.8905   16.7183 S   0  0  0  0  0  0
   43.1815   15.3076   15.6966 C   0  0  0  0  0  0
   43.8168   16.5586   16.1215 C   0  0  0  0  0  0
   43.9527   17.4863   15.2940 O   0  0  0  0  0  0
   44.1910   16.6863   17.3059 O   0  5  0  0  0  0
   41.9689   11.5772   16.0717 C   0  0  0  0  0  0
   42.9090   10.6756   16.6172 C   0  0  0  0  0  0
   42.5384    9.3418   16.8939 C   0  0  0  0  0  0
   41.2377    8.8827   16.5945 C   0  0  0  0  0  0
   40.2888    9.7787   16.0547 C   0  0  0  0  0  0
   40.6595   11.1150   15.8420 C   0  0  0  0  0  0
   38.9766    9.4409   15.6970 N   0  0  0  0  0  0
   38.5919    8.0756   15.3659 C   0  0  0  0  0  0
   37.0570    7.9811   15.3494 C   0  0  0  0  0  0
   36.5639    6.5932   14.9166 C   0  0  0  0  0  0
   37.1381    6.2282   13.6109 N   0  0  1  0  0  0
   38.6130    6.2787   13.5510 C   0  0  0  0  0  0
   39.1301    7.6630   13.9834 C   0  0  0  0  0  0
   36.2708    5.1361   12.5824 S   0  0  0  0  0  0
   34.8480    5.5123   12.6175 O   0  0  0  0  0  0
   36.9734    5.0861   11.2938 O   0  0  0  0  0  0
   36.4794    3.5085   13.4142 C   0  0  0  0  0  0
   35.9609    2.4127   12.5025 C   0  0  0  0  0  0
   36.8306    1.7726   11.5928 C   0  0  0  0  0  0
   36.3415    0.7705   10.7319 C   0  0  0  0  0  0
   34.9832    0.4031   10.7807 C   0  0  0  0  0  0
   34.1148    1.0367   11.6907 C   0  0  0  0  0  0
   34.6003    2.0428   12.5473 C   0  0  0  0  0  0
   41.1048   17.4176   14.6285 H   0  0  0  0  0  0
   40.1171   16.0395   14.1549 H   0  0  0  0  0  0
   43.9215   10.9981   16.8137 H   0  0  0  0  0  0
   43.2641    8.6585   17.3093 H   0  0  0  0  0  0
   40.9871    7.8506   16.7874 H   0  0  0  0  0  0
   39.9154   11.7989   15.4687 H   0  0  0  0  0  0
   38.5301   10.1464   15.1152 H   0  0  0  0  0  0
   38.9683    7.3906   16.1259 H   0  0  0  0  0  0
   36.6587    8.2156   16.3375 H   0  0  0  0  0  0
   36.6475    8.7284   14.6667 H   0  0  0  0  0  0
   36.8428    5.8390   15.6532 H   0  0  0  0  0  0
   35.4753    6.5962   14.8583 H   0  0  0  0  0  0
   39.0264    5.4986   14.1928 H   0  0  0  0  0  0
   38.9547    6.0672   12.5368 H   0  0  0  0  0  0
   38.8301    8.4022   13.2391 H   0  0  0  0  0  0
   40.2207    7.6581   13.9873 H   0  0  0  0  0  0
   37.5379    3.3577   13.6228 H   0  0  0  0  0  0
   35.9425    3.5230   14.3622 H   0  0  0  0  0  0
   37.8730    2.0517   11.5447 H   0  0  0  0  0  0
   37.0063    0.2849   10.0316 H   0  0  0  0  0  0
   34.6033   -0.3590   10.1152 H   0  0  0  0  0  0
   33.0696    0.7624   11.7188 H   0  0  0  0  0  0
   33.9211    2.5326   13.2298 H   0  0  0  0  0  0
  1  2  2  0  0  0
  2  3  1  0  0  0
  2  4  1  0  0  0
  4  5  1  0  0  0
  4 38  1  0  0  0
  4 39  1  0  0  0
  5  6  1  0  0  0
  6 11  2  0  0  0
  6  7  1  0  0  0
  7  8  1  0  0  0
  7  9  2  0  0  0
  9 10  1  0  0  0
  9 15  1  0  0  0
 10 11  1  0  0  0
 11 12  1  0  0  0
 12 13  2  0  0  0
 12 14  1  0  0  0
 15 20  1  0  0  0
 15 16  2  0  0  0
 16 17  1  0  0  0
 16 40  1  0  0  0
 17 18  2  0  0  0
 17 41  1  0  0  0
 18 19  1  0  0  0
 18 42  1  0  0  0
 19 20  2  0  0  0
 19 21  1  0  0  0
 20 43  1  0  0  0
 21 22  1  0  0  0
 21 44  1  0  0  0
 22 27  1  0  0  0
 22 23  1  0  0  0
 22 45  1  0  0  0
 23 24  1  0  0  0
 23 46  1  0  0  0
 23 47  1  0  0  0
 24 25  1  0  0  0
 24 48  1  0  0  0
 24 49  1  0  0  0
 25 26  1  0  0  0
 25 28  1  0  0  0
 26 27  1  0  0  0
 26 50  1  0  0  0
 26 51  1  0  0  0
 27 52  1  0  0  0
 27 53  1  0  0  0
 28 29  2  0  0  0
 28 30  2  0  0  0
 28 31  1  0  0  0
 31 32  1  0  0  0
 31 54  1  0  0  0
 31 55  1  0  0  0
 32 37  1  0  0  0
 32 33  2  0  0  0
 33 34  1  0  0  0
 33 56  1  0  0  0
 34 35  2  0  0  0
 34 57  1  0  0  0
 35 36  1  0  0  0
 35 58  1  0  0  0
 36 37  2  0  0  0
 36 59  1  0  0  0
 37 60  1  0  0  0
M  CHG  2   3  -1  14  -1
M  END
> <s_m_entry_id>
470

> <i_f3d_flags>
0

> <r_epik_Ionization_Penalty>
  0.0004

> <r_epik_State_Penalty>
  0.0002

> <i_epik_Tot_Q>
-2

> <s_m_job_name>
glide-dock_SP_ptp1b_no_cons

> <r_i_docking_score>
-9.54194166612625

> <r_i_glide_gscore>
-9.54214166612625

> <r_i_glide_emodel>
-135.851188924783

$$$$
lig_23468
                    3D
 Schrodinger Suite 2021-4.
 37 38  0  0  1  0            999 V2000
   39.6049   17.8862   12.8925 O   0  0  0  0  0  0
   40.7563   17.3962   12.8940 C   0  0  0  0  0  0
   41.5693   17.4863   11.9428 O   0  5  0  0  0  0
   41.1843   16.6501   14.1615 C   0  0  0  0  0  0
   42.3534   15.8703   13.9313 O   0  0  0  0  0  0
   42.5686   14.9172   14.8659 C   0  0  0  0  0  0
   42.0416   13.6073   14.7902 C   0  0  0  0  0  0
   40.9838   13.1360   13.2940 Br  0  0  0  0  0  0
   42.3759   12.7621   15.8207 C   0  0  0  0  0  0
   43.3839   13.6219   16.9604 S   0  0  0  0  0  0
   43.3110   15.0902   16.0028 C   0  0  0  0  0  0
   43.9968   16.2861   16.4999 C   0  0  0  0  0  0
   44.3524   16.3606   17.6955 O   0  0  0  0  0  0
   44.1839   17.2202   15.6939 O   0  5  0  0  0  0
   42.0278   11.3590   16.0648 C   0  0  0  0  0  0
   42.9241   10.4785   16.7102 C   0  0  0  0  0  0
   42.5848    9.1241   16.9001 C   0  0  0  0  0  0
   41.3575    8.6197   16.4279 C   0  0  0  0  0  0
   40.4462    9.4856   15.7806 C   0  0  0  0  0  0
   40.7869   10.8439   15.6357 C   0  0  0  0  0  0
   39.2027    9.0868   15.2147 N   0  0  0  0  0  0
   38.5473    7.9165   15.2938 C   0  0  0  0  0  0
   38.9047    6.9524   15.9683 O   0  0  0  0  0  0
   37.2416    7.8415   14.4955 C   0  0  0  0  0  0
   37.1008    6.5232   13.7191 C   0  0  0  0  0  0
   40.3533   16.0232   14.4917 H   0  0  0  0  0  0
   41.3781   17.3770   14.9520 H   0  0  0  0  0  0
   43.8858   10.8314   17.0527 H   0  0  0  0  0  0
   43.2794    8.4597   17.3921 H   0  0  0  0  0  0
   41.1518    7.5685   16.5593 H   0  0  0  0  0  0
   40.0756   11.5024   15.1673 H   0  0  0  0  0  0
   38.7457    9.7990   14.6574 H   0  0  0  0  0  0
   37.1860    8.6784   13.7963 H   0  0  0  0  0  0
   36.4055    7.9529   15.1879 H   0  0  0  0  0  0
   36.1787    6.5116   13.1369 H   0  0  0  0  0  0
   37.0742    5.6670   14.3942 H   0  0  0  0  0  0
   37.9329    6.3802   13.0277 H   0  0  0  0  0  0
  1  2  2  0  0  0
  2  3  1  0  0  0
  2  4  1  0  0  0
  4  5  1  0  0  0
  4 26  1  0  0  0
  4 27  1  0  0  0
  5  6  1  0  0  0
  6 11  2  0  0  0
  6  7  1  0  0  0
  7  8  1  0  0  0
  7  9  2  0  0  0
  9 10  1  0  0  0
  9 15  1  0  0  0
 10 11  1  0  0  0
 11 12  1  0  0  0
 12 13  2  0  0  0
 12 14  1  0  0  0
 15 20  1  0  0  0
 15 16  2  0  0  0
 16 17  1  0  0  0
 16 28  1  0  0  0
 17 18  2  0  0  0
 17 29  1  0  0  0
 18 19  1  0  0  0
 18 30  1  0  0  0
 19 20  2  0  0  0
 19 21  1  0  0  0
 20 31  1  0  0  0
 21 22  1  0  0  0
 21 32  1  0  0  0
 22 23  2  0  0  0
 22 24  1  0  0  0
 24 25  1  0  0  0
 24 33  1  0  0  0
 24 34  1  0  0  0
 25 35  1  0  0  0
 25 36  1  0  0  0
 25 37  1  0  0  0
M  CHG  2   3  -1  14  -1
M  END
> <s_m_entry_id>
471

> <i_f3d_flags>
0

> <r_epik_Ionization_Penalty>
  0.0001

> <r_epik_State_Penalty>
  0.0000

> <i_epik_Tot_Q>
-2

> <s_m_job_name>
glide-dock_SP_ptp1b_no_cons

> <r_lp_tautomer_probability>
1

> <r_i_docking_score>
-8.06908151734002

> <r_i_glide_gscore>
-8.06908151734002

> <r_i_glide_emodel>
-104.729222017261

$$$$
lig_23484
                    3D
 Schrodinger Suite 2021-4.
 60 63  0  0  1  0            999 V2000
   41.3756   17.4862   11.6212 O   0  0  0  0  0  0
   40.4962   17.3590   12.5076 C   0  0  0  0  0  0
   39.3634   17.8872   12.4941 O   0  5  0  0  0  0
   40.8057   16.4810   13.7054 C   0  0  0  0  0  0
   41.9022   15.6411   13.4032 O   0  0  0  0  0  0
   42.2578   14.8481   14.4249 C   0  0  0  0  0  0
   41.7960   13.5083   14.5556 C   0  0  0  0  0  0
   42.3170   12.8519   15.6393 C   0  0  0  0  0  0
   43.3841   13.9102   16.5423 S   0  0  0  0  0  0
   43.1078   15.2380   15.4318 C   0  0  0  0  0  0
   43.7828   16.5378   15.6938 C   0  0  0  0  0  0
   44.5248   16.6856   16.6896 O   0  0  0  0  0  0
   43.6267   17.4862   14.8927 O   0  5  0  0  0  0
   42.0788   11.4631   16.0431 C   0  0  0  0  0  0
   42.9270   10.7853   16.9491 C   0  0  0  0  0  0
   42.6852    9.4387   17.2887 C   0  0  0  0  0  0
   41.6035    8.7450   16.7129 C   0  0  0  0  0  0
   40.7548    9.3983   15.7954 C   0  0  0  0  0  0
   40.9892   10.7525   15.4871 C   0  0  0  0  0  0
   39.6816    8.7483   15.1703 N   0  0  0  0  0  0
   39.8646    7.3751   14.7080 C   0  0  0  0  0  0
   39.0814    6.3817   15.5816 C   0  0  0  0  0  0
   39.1706    4.9391   15.0429 C   0  0  0  0  0  0
   38.8135    4.8625   13.6115 N   0  0  2  0  0  0
   39.5385    5.8049   12.7426 C   0  0  0  0  0  0
   39.4007    7.2443   13.2502 C   0  0  0  0  0  0
   37.2897    4.1873   13.1164 S   0  0  0  0  0  0
   37.2889    4.1273   11.6462 O   0  0  0  0  0  0
   37.0827    2.9629   13.9039 O   0  0  0  0  0  0
   36.0448    5.4567   13.6242 C   0  0  0  0  0  0
   35.0697    4.8894   14.6425 C   0  0  0  0  0  0
   35.2237    5.1793   16.0145 C   0  0  0  0  0  0
   34.3203    4.6520   16.9573 C   0  0  0  0  0  0
   33.2603    3.8280   16.5343 C   0  0  0  0  0  0
   33.1068    3.5287   15.1674 C   0  0  0  0  0  0
   34.0071    4.0601   14.2229 C   0  0  0  0  0  0
   41.0138   17.1194   14.5659 H   0  0  0  0  0  0
   39.9242   15.8863   13.9468 H   0  0  0  0  0  0
   41.1214   13.0794   13.8303 H   0  0  0  0  0  0
   43.7758   11.2879   17.3892 H   0  0  0  0  0  0
   43.3354    8.9342   17.9879 H   0  0  0  0  0  0
   41.4231    7.7154   16.9826 H   0  0  0  0  0  0
   40.3223   11.2449   14.7955 H   0  0  0  0  0  0
   39.1281    9.3318   14.5554 H   0  0  0  0  0  0
   40.9229    7.1109   14.7412 H   0  0  0  0  0  0
   39.4600    6.4054   16.6036 H   0  0  0  0  0  0
   38.0407    6.6916   15.6453 H   0  0  0  0  0  0
   40.1884    4.5675   15.1638 H   0  0  0  0  0  0
   38.5300    4.2759   15.6244 H   0  0  0  0  0  0
   40.5915    5.5202   12.7324 H   0  0  0  0  0  0
   39.1908    5.7289   11.7129 H   0  0  0  0  0  0
   38.3690    7.5797   13.1437 H   0  0  0  0  0  0
   40.0045    7.8861   12.6141 H   0  0  0  0  0  0
   36.5579    6.3322   14.0129 H   0  0  0  0  0  0
   35.5060    5.7676   12.7318 H   0  0  0  0  0  0
   36.0363    5.8027   16.3547 H   0  0  0  0  0  0
   34.4460    4.8729   18.0071 H   0  0  0  0  0  0
   32.5720    3.4173   17.2581 H   0  0  0  0  0  0
   32.3008    2.8877   14.8412 H   0  0  0  0  0  0
   33.8841    3.8173   13.1776 H   0  0  0  0  0  0
  1  2  2  0  0  0
  2  3  1  0  0  0
  2  4  1  0  0  0
  4  5  1  0  0  0
  4 37  1  0  0  0
  4 38  1  0  0  0
  5  6  1  0  0  0
  6 10  2  0  0  0
  6  7  1  0  0  0
  7  8  2  0  0  0
  7 39  1  0  0  0
  8  9  1  0  0  0
  8 14  1  0  0  0
  9 10  1  0  0  0
 10 11  1  0  0  0
 11 12  2  0  0  0
 11 13  1  0  0  0
 14 19  1  0  0  0
 14 15  2  0  0  0
 15 16  1  0  0  0
 15 40  1  0  0  0
 16 17  2  0  0  0
 16 41  1  0  0  0
 17 18  1  0  0  0
 17 42  1  0  0  0
 18 19  2  0  0  0
 18 20  1  0  0  0
 19 43  1  0  0  0
 20 21  1  0  0  0
 20 44  1  0  0  0
 21 26  1  0  0  0
 21 22  1  0  0  0
 21 45  1  0  0  0
 22 23  1  0  0  0
 22 46  1  0  0  0
 22 47  1  0  0  0
 23 24  1  0  0  0
 23 48  1  0  0  0
 23 49  1  0  0  0
 24 25  1  0  0  0
 24 27  1  0  0  0
 25 26  1  0  0  0
 25 50  1  0  0  0
 25 51  1  0  0  0
 26 52  1  0  0  0
 26 53  1  0  0  0
 27 28  2  0  0  0
 27 29  2  0  0  0
 27 30  1  0  0  0
 30 31  1  0  0  0
 30 54  1  0  0  0
 30 55  1  0  0  0
 31 36  1  0  0  0
 31 32  2  0  0  0
 32 33  1  0  0  0
 32 56  1  0  0  0
 33 34  2  0  0  0
 33 57  1  0  0  0
 34 35  1  0  0  0
 34 58  1  0  0  0
 35 36  2  0  0  0
 35 59  1  0  0  0
 36 60  1  0  0  0
M  CHG  2   3  -1  13  -1
M  END
> <s_m_entry_id>
472

> <i_f3d_flags>
0

> <r_epik_Ionization_Penalty>
  0.0005

> <r_epik_State_Penalty>
  0.0002

> <i_epik_Tot_Q>
-2

> <s_m_job_name>
glide-dock_SP_ptp1b_no_cons

> <r_i_docking_score>
-7.897156818674

> <r_i_glide_gscore>
-7.897356818674

> <r_i_glide_emodel>
-119.60971040682

$$$$
lig_20670_2qbs
                    3D
 Schrodinger Suite 2021-4.
 45 47  0  0  1  0            999 V2000
   41.5997   17.4863   11.9326 O   0  0  0  0  0  0
   40.7976   17.4155   12.8940 C   0  0  0  0  0  0
   39.6381   17.8863   12.8903 O   0  5  0  0  0  0
   41.2553   16.7284   14.1834 C   0  0  0  0  0  0
   42.4323   15.9584   13.9672 O   0  0  0  0  0  0
   42.6229   14.9843   14.8847 C   0  0  0  0  0  0
   42.0612   13.6850   14.7940 C   0  0  0  0  0  0
   40.9838   13.2559   13.2940 Br  0  0  0  0  0  0
   42.3830   12.8223   15.8165 C   0  0  0  0  0  0
   43.3838   13.6618   16.9779 S   0  0  0  0  0  0
   43.3696   15.1288   16.0224 C   0  0  0  0  0  0
   44.1106   16.2863   16.5280 C   0  0  0  0  0  0
   44.5837   17.0863   15.6940 O   0  0  0  0  0  0
   44.2237   16.4653   17.7592 O   0  5  0  0  0  0
   42.0344   11.4171   16.0597 C   0  0  0  0  0  0
   42.9225   10.5510   16.7383 C   0  0  0  0  0  0
   42.5838    9.2019   16.9614 C   0  0  0  0  0  0
   41.3638    8.6864   16.4857 C   0  0  0  0  0  0
   40.4668    9.5287   15.7930 C   0  0  0  0  0  0
   40.8055   10.8848   15.6140 C   0  0  0  0  0  0
   39.2431    9.0863   15.2645 N   0  0  0  0  0  0
   39.0184    7.6856   14.9246 C   0  0  0  0  0  0
   37.5423    7.4767   14.5348 C   0  0  0  0  0  0
   37.2604    6.0179   14.1400 C   0  0  0  0  0  0
   38.1816    5.5631   12.9975 C   0  0  0  0  0  0
   39.6583    5.7649   13.3677 C   0  0  0  0  0  0
   39.9406    7.2191   13.7767 C   0  0  0  0  0  0
   41.4524   17.4863   14.9423 H   0  0  0  0  0  0
   40.4357   16.1075   14.5513 H   0  0  0  0  0  0
   43.8770   10.9121   17.0921 H   0  0  0  0  0  0
   43.2702    8.5545   17.4866 H   0  0  0  0  0  0
   41.1359    7.6450   16.6563 H   0  0  0  0  0  0
   40.1031   11.5278   15.1137 H   0  0  0  0  0  0
   38.7200    9.7672   14.7235 H   0  0  0  0  0  0
   39.2136    7.0770   15.8080 H   0  0  0  0  0  0
   36.8940    7.7606   15.3646 H   0  0  0  0  0  0
   37.2827    8.1320   13.7017 H   0  0  0  0  0  0
   37.4058    5.3707   15.0060 H   0  0  0  0  0  0
   36.2172    5.9074   13.8431 H   0  0  0  0  0  0
   37.9975    4.5141   12.7633 H   0  0  0  0  0  0
   37.9509    6.1273   12.0940 H   0  0  0  0  0  0
   39.9269    5.0982   14.1884 H   0  0  0  0  0  0
   40.2946    5.4864   12.5273 H   0  0  0  0  0  0
   39.8158    7.8709   12.9111 H   0  0  0  0  0  0
   40.9838    7.2958   14.0782 H   0  0  0  0  0  0
  1  2  2  0  0  0
  2  3  1  0  0  0
  2  4  1  0  0  0
  4  5  1  0  0  0
  4 28  1  0  0  0
  4 29  1  0  0  0
  5  6  1  0  0  0
  6 11  2  0  0  0
  6  7  1  0  0  0
  7  8  1  0  0  0
  7  9  2  0  0  0
  9 10  1  0  0  0
  9 15  1  0  0  0
 10 11  1  0  0  0
 11 12  1  0  0  0
 12 13  2  0  0  0
 12 14  1  0  0  0
 15 20  1  0  0  0
 15 16  2  0  0  0
 16 17  1  0  0  0
 16 30  1  0  0  0
 17 18  2  0  0  0
 17 31  1  0  0  0
 18 19  1  0  0  0
 18 32  1  0  0  0
 19 20  2  0  0  0
 19 21  1  0  0  0
 20 33  1  0  0  0
 21 22  1  0  0  0
 21 34  1  0  0  0
 22 27  1  0  0  0
 22 23  1  0  0  0
 22 35  1  0  0  0
 23 24  1  0  0  0
 23 36  1  0  0  0
 23 37  1  0  0  0
 24 25  1  0  0  0
 24 38  1  0  0  0
 24 39  1  0  0  0
 25 26  1  0  0  0
 25 40  1  0  0  0
 25 41  1  0  0  0
 26 27  1  0  0  0
 26 42  1  0  0  0
 26 43  1  0  0  0
 27 44  1  0  0  0
 27 45  1  0  0  0
M  CHG  2   3  -1  14  -1
M  END
> <s_m_entry_id>
473

> <i_f3d_flags>
0

> <r_epik_Ionization_Penalty>
  0.0027

> <r_epik_State_Penalty>
  0.0018

> <i_epik_Tot_Q>
-2

> <s_m_job_name>
glide-dock_SP_ptp1b_no_cons

> <r_i_docking_score>
-8.21359766843124

> <r_i_glide_gscore>
-8.21539766843124

> <r_i_glide_emodel>
-107.249526082851

$$$$
lig_23466
                    3D
 Schrodinger Suite 2021-4.
 29 30  0  0  1  0            999 V2000
   39.3837   17.8863   12.4965 O   0  0  0  0  0  0
   40.5365   17.4043   12.5523 C   0  0  0  0  0  0
   41.3838   17.4863   11.6338 O   0  5  0  0  0  0
   40.9275   16.6729   13.8360 C   0  0  0  0  0  0
   42.1016   15.9037   13.6216 O   0  0  0  0  0  0
   42.3786   15.0252   14.6071 C   0  0  0  0  0  0
   41.8878   13.6965   14.6524 C   0  0  0  0  0  0
   40.7229   13.0863   13.2940 Br  0  0  0  0  0  0
   42.3295   12.9322   15.7038 C   0  0  0  0  0  0
   43.3838   13.8924   16.7104 S   0  0  0  0  0  0
   43.1608   15.3043   15.6940 C   0  0  0  0  0  0
   43.7932   16.5572   16.1195 C   0  0  0  0  0  0
   44.1838   16.6863   17.2986 O   0  0  0  0  0  0
   43.9155   17.4863   15.2940 O   0  5  0  0  0  0
   42.0527   11.5420   16.0716 C   0  0  0  0  0  0
   43.0486   10.7355   16.6692 C   0  0  0  0  0  0
   42.7782    9.3975   17.0184 C   0  0  0  0  0  0
   41.5139    8.8379   16.7538 C   0  0  0  0  0  0
   40.5151    9.6261   16.1524 C   0  0  0  0  0  0
   39.2628    9.0864   15.8622 N   0  0  0  0  0  0
   40.7837   10.9698   15.8331 C   0  0  0  0  0  0
   41.0988   17.4051   14.6265 H   0  0  0  0  0  0
   40.0973   16.0381   14.1494 H   0  0  0  0  0  0
   44.0330   11.1368   16.8623 H   0  0  0  0  0  0
   43.5472    8.7943   17.4776 H   0  0  0  0  0  0
   41.3188    7.8069   17.0110 H   0  0  0  0  0  0
   39.1654    8.0810   15.8587 H   0  0  0  0  0  0
   38.6958    9.5703   15.1769 H   0  0  0  0  0  0
   39.9968   11.5652   15.4001 H   0  0  0  0  0  0
  1  2  2  0  0  0
  2  3  1  0  0  0
  2  4  1  0  0  0
  4  5  1  0  0  0
  4 22  1  0  0  0
  4 23  1  0  0  0
  5  6  1  0  0  0
  6 11  2  0  0  0
  6  7  1  0  0  0
  7  8  1  0  0  0
  7  9  2  0  0  0
  9 10  1  0  0  0
  9 15  1  0  0  0
 10 11  1  0  0  0
 11 12  1  0  0  0
 12 13  2  0  0  0
 12 14  1  0  0  0
 15 21  1  0  0  0
 15 16  2  0  0  0
 16 17  1  0  0  0
 16 24  1  0  0  0
 17 18  2  0  0  0
 17 25  1  0  0  0
 18 19  1  0  0  0
 18 26  1  0  0  0
 19 20  1  0  0  0
 19 21  2  0  0  0
 20 27  1  0  0  0
 20 28  1  0  0  0
 21 29  1  0  0  0
M  CHG  2   3  -1  14  -1
M  END
> <s_m_entry_id>
474

> <i_f3d_flags>
0

> <r_epik_Ionization_Penalty>
  0.0006

> <r_epik_State_Penalty>
  0.0003

> <i_epik_Tot_Q>
-2

> <s_m_job_name>
glide-dock_SP_ptp1b_no_cons

> <r_i_docking_score>
-7.91836053957525

> <r_i_glide_gscore>
-7.91866053957525

> <r_i_glide_emodel>
-96.4879973806414

$$$$
