lig_23475
                    3D
 Schrodinger Suite 2021-4.
 42 44  0  0  1  0            999 V2000
   41.3697   17.4872   11.8641 O   0  0  0  0  0  0
   40.4632   17.1477   12.6634 C   0  0  0  0  0  0
   39.2767   17.5537   12.6111 O   0  5  0  0  0  0
   40.8059   16.1495   13.7788 C   0  0  0  0  0  0
   42.1622   15.7187   13.7134 O   0  0  0  0  0  0
   42.5375   14.9123   14.7340 C   0  0  0  0  0  0
   42.1493   13.5610   14.8930 C   0  0  0  0  0  0
   40.9832   12.7174   13.6787 Br  0  0  0  0  0  0
   42.6133   12.9227   16.0107 C   0  0  0  0  0  0
   43.6127   13.9998   16.9211 S   0  0  0  0  0  0
   43.3399   15.2957   15.7719 C   0  0  0  0  0  0
   43.9626   16.5664   16.0975 C   0  0  0  0  0  0
   44.5837   16.6883   17.1725 O   0  0  0  0  0  0
   43.8732   17.5214   15.3033 O   0  5  0  0  0  0
   42.3611   11.5715   16.4881 C   0  0  0  0  0  0
   43.4141   10.7914   17.0063 C   0  0  0  0  0  0
   43.1765    9.4828   17.4547 C   0  0  0  0  0  0
   41.8826    8.9368   17.3662 C   0  0  0  0  0  0
   40.8126    9.6899   16.8294 C   0  0  0  0  0  0
   41.0611   11.0191   16.4228 C   0  0  0  0  0  0
   39.5176    9.1568   16.7289 N   0  0  0  0  0  0
   39.2372    7.7641   17.0896 C   0  0  0  0  0  0
   37.7276    7.5008   17.1331 C   0  0  0  0  0  0
   37.3188    7.0460   15.7212 C   0  0  0  0  0  0
   38.6208    6.7778   14.9583 C   0  0  0  0  0  0
   39.7290    6.7900   16.0143 C   0  0  0  0  0  0
   40.5775   16.6113   14.7405 H   0  0  0  0  0  0
   40.1648   15.2798   13.6812 H   0  0  0  0  0  0
   44.4112   11.2018   17.0672 H   0  0  0  0  0  0
   43.9896    8.9007   17.8705 H   0  0  0  0  0  0
   41.7304    7.9353   17.7368 H   0  0  0  0  0  0
   40.2455   11.6370   16.0707 H   0  0  0  0  0  0
   38.8805    9.6037   16.0887 H   0  0  0  0  0  0
   39.6768    7.5288   18.0590 H   0  0  0  0  0  0
   37.5123    6.6908   17.8351 H   0  0  0  0  0  0
   37.1595    8.3684   17.4686 H   0  0  0  0  0  0
   36.7076    6.1425   15.7714 H   0  0  0  0  0  0
   36.7255    7.8097   15.2161 H   0  0  0  0  0  0
   38.5908    5.8364   14.4104 H   0  0  0  0  0  0
   38.7942    7.5758   14.2360 H   0  0  0  0  0  0
   40.6982    7.0662   15.5972 H   0  0  0  0  0  0
   39.8342    5.7887   16.4406 H   0  0  0  0  0  0
  1  2  2  0  0  0
  2  3  1  0  0  0
  2  4  1  0  0  0
  4  5  1  0  0  0
  4 27  1  0  0  0
  4 28  1  0  0  0
  5  6  1  0  0  0
  6 11  2  0  0  0
  6  7  1  0  0  0
  7  8  1  0  0  0
  7  9  2  0  0  0
  9 10  1  0  0  0
  9 15  1  0  0  0
 10 11  1  0  0  0
 11 12  1  0  0  0
 12 13  2  0  0  0
 12 14  1  0  0  0
 15 20  1  0  0  0
 15 16  2  0  0  0
 16 17  1  0  0  0
 16 29  1  0  0  0
 17 18  2  0  0  0
 17 30  1  0  0  0
 18 19  1  0  0  0
 18 31  1  0  0  0
 19 20  2  0  0  0
 19 21  1  0  0  0
 20 32  1  0  0  0
 21 22  1  0  0  0
 21 33  1  0  0  0
 22 26  1  0  0  0
 22 23  1  0  0  0
 22 34  1  0  0  0
 23 24  1  0  0  0
 23 35  1  0  0  0
 23 36  1  0  0  0
 24 25  1  0  0  0
 24 37  1  0  0  0
 24 38  1  0  0  0
 25 26  1  0  0  0
 25 39  1  0  0  0
 25 40  1  0  0  0
 26 41  1  0  0  0
 26 42  1  0  0  0
M  CHG  2   3  -1  14  -1
M  END
> <s_m_entry_id>
475

> <i_f3d_flags>
0

> <r_epik_Ionization_Penalty>
  0.0029

> <r_epik_State_Penalty>
  0.0020

> <i_epik_Tot_Q>
-2

> <s_m_job_name>
glide-dock_SP_ptp1b_core_cons

> <r_i_docking_score>
-6.84268241846563

> <r_i_glide_gscore>
-6.84468241846563

> <r_i_glide_emodel>
-86.047723727734

$$$$
lig_23473
                    3D
 Schrodinger Suite 2021-4.
 41 43  0  0  1  0            999 V2000
   41.3880   17.4863   11.8260 O   0  0  0  0  0  0
   40.5907   17.3586   12.7868 C   0  0  0  0  0  0
   39.4563   17.8863   12.8341 O   0  5  0  0  0  0
   41.0126   16.5198   14.0015 C   0  0  0  0  0  0
   42.1746   15.7417   13.7286 O   0  0  0  0  0  0
   42.5559   14.9366   14.7488 C   0  0  0  0  0  0
   42.1668   13.5924   14.9082 C   0  0  0  0  0  0
   40.9838   12.7862   13.6878 Br  0  0  0  0  0  0
   42.6319   12.9330   16.0110 C   0  0  0  0  0  0
   43.6672   13.9893   16.9101 S   0  0  0  0  0  0
   43.3811   15.3001   15.7774 C   0  0  0  0  0  0
   44.0063   16.5696   16.0988 C   0  0  0  0  0  0
   44.5840   16.6863   17.1975 O   0  0  0  0  0  0
   43.9346   17.5167   15.2915 O   0  5  0  0  0  0
   42.3686   11.5787   16.4863 C   0  0  0  0  0  0
   43.4089   10.7847   17.0030 C   0  0  0  0  0  0
   43.1629    9.4707   17.4363 C   0  0  0  0  0  0
   41.8754    8.9185   17.3324 C   0  0  0  0  0  0
   40.8081    9.7068   16.8378 C   0  0  0  0  0  0
   41.0703   11.0287   16.4318 C   0  0  0  0  0  0
   39.4910    9.3035   16.7633 O   0  0  0  0  0  0
   39.1614    7.9237   16.8812 C   0  0  0  0  0  0
   39.3752    7.1220   15.6060 C   0  0  0  0  0  0
   39.2504    5.7173   15.6470 C   0  0  0  0  0  0
   39.3837    4.9564   14.4695 C   0  0  0  0  0  0
   39.6554    5.5962   13.2454 C   0  0  0  0  0  0
   39.7846    6.9969   13.1979 C   0  0  0  0  0  0
   39.6362    7.7594   14.3724 C   0  0  0  0  0  0
   41.1950   17.1920   14.8413 H   0  0  0  0  0  0
   40.1841   15.8690   14.2845 H   0  0  0  0  0  0
   44.4102   11.1821   17.0577 H   0  0  0  0  0  0
   43.9735    8.8745   17.8277 H   0  0  0  0  0  0
   41.7267    7.9022   17.6624 H   0  0  0  0  0  0
   40.2453   11.6273   16.0746 H   0  0  0  0  0  0
   39.6496    7.4494   17.7315 H   0  0  0  0  0  0
   38.0951    7.8786   17.1055 H   0  0  0  0  0  0
   39.0423    5.2199   16.5832 H   0  0  0  0  0  0
   39.2897    3.8813   14.5066 H   0  0  0  0  0  0
   39.7744    5.0098   12.3460 H   0  0  0  0  0  0
   39.9977    7.4871   12.2596 H   0  0  0  0  0  0
   39.7203    8.8352   14.3151 H   0  0  0  0  0  0
  1  2  2  0  0  0
  2  3  1  0  0  0
  2  4  1  0  0  0
  4  5  1  0  0  0
  4 29  1  0  0  0
  4 30  1  0  0  0
  5  6  1  0  0  0
  6 11  2  0  0  0
  6  7  1  0  0  0
  7  8  1  0  0  0
  7  9  2  0  0  0
  9 10  1  0  0  0
  9 15  1  0  0  0
 10 11  1  0  0  0
 11 12  1  0  0  0
 12 13  2  0  0  0
 12 14  1  0  0  0
 15 20  1  0  0  0
 15 16  2  0  0  0
 16 17  1  0  0  0
 16 31  1  0  0  0
 17 18  2  0  0  0
 17 32  1  0  0  0
 18 19  1  0  0  0
 18 33  1  0  0  0
 19 20  2  0  0  0
 19 21  1  0  0  0
 20 34  1  0  0  0
 21 22  1  0  0  0
 22 23  1  0  0  0
 22 35  1  0  0  0
 22 36  1  0  0  0
 23 28  1  0  0  0
 23 24  2  0  0  0
 24 25  1  0  0  0
 24 37  1  0  0  0
 25 26  2  0  0  0
 25 38  1  0  0  0
 26 27  1  0  0  0
 26 39  1  0  0  0
 27 28  2  0  0  0
 27 40  1  0  0  0
 28 41  1  0  0  0
M  CHG  2   3  -1  14  -1
M  END
> <s_m_entry_id>
476

> <i_f3d_flags>
0

> <r_epik_Ionization_Penalty>
  0.0001

> <r_epik_State_Penalty>
  0.0000

> <i_epik_Tot_Q>
-2

> <s_m_job_name>
glide-dock_SP_ptp1b_core_cons

> <r_lp_tautomer_probability>
1

> <r_i_docking_score>
-7.25336655870144

> <r_i_glide_gscore>
-7.25336655870144

> <r_i_glide_emodel>
-96.7988526271728

$$$$
lig_23472
                    3D
 Schrodinger Suite 2021-4.
 42 44  0  0  1  0            999 V2000
   39.4642   17.8855   12.8339 O   0  0  0  0  0  0
   40.5861   17.3315   12.7814 C   0  0  0  0  0  0
   41.4048   17.4856   11.8428 O   0  5  0  0  0  0
   40.9536   16.4123   13.9562 C   0  0  0  0  0  0
   42.1925   15.7425   13.7380 O   0  0  0  0  0  0
   42.5577   14.9238   14.7540 C   0  0  0  0  0  0
   42.1561   13.5747   14.9064 C   0  0  0  0  0  0
   40.9827   12.7715   13.6813 Br  0  0  0  0  0  0
   42.6258   12.9199   16.0111 C   0  0  0  0  0  0
   43.6483   13.9807   16.9213 S   0  0  0  0  0  0
   43.3738   15.2902   15.7890 C   0  0  0  0  0  0
   44.0046   16.5614   16.1089 C   0  0  0  0  0  0
   44.5840   16.6858   17.2062 O   0  0  0  0  0  0
   43.9427   17.5032   15.2934 O   0  5  0  0  0  0
   42.3712   11.5659   16.4840 C   0  0  0  0  0  0
   43.4087   10.7802   17.0216 C   0  0  0  0  0  0
   43.1602    9.4637   17.4440 C   0  0  0  0  0  0
   41.8692    8.9158   17.3267 C   0  0  0  0  0  0
   40.8165    9.6839   16.7753 C   0  0  0  0  0  0
   41.0798   11.0080   16.3870 C   0  0  0  0  0  0
   39.5049    9.2346   16.5613 N   0  0  0  0  0  0
   38.6722    7.7651   16.9633 S   0  0  0  0  0  0
   39.5761    6.9348   17.7719 O   0  0  0  0  0  0
   37.3666    8.2001   17.4865 O   0  0  0  0  0  0
   38.4305    6.9897   15.3657 C   0  0  0  0  0  0
   39.4719    6.2416   14.7773 C   0  0  0  0  0  0
   39.2580    5.6051   13.5365 C   0  0  0  0  0  0
   38.0068    5.7153   12.8939 C   0  0  0  0  0  0
   37.7839    5.0864   11.7153 F   0  0  0  0  0  0
   36.9777    6.4790   13.4772 C   0  0  0  0  0  0
   37.1875    7.1216   14.7134 C   0  0  0  0  0  0
   40.9846   17.0016   14.8791 H   0  0  0  0  0  0
   40.1637   15.6660   14.0746 H   0  0  0  0  0  0
   44.4071   11.1841   17.0991 H   0  0  0  0  0  0
   43.9644    8.8660   17.8484 H   0  0  0  0  0  0
   41.7226    7.8976   17.6469 H   0  0  0  0  0  0
   40.2680   11.6063   16.0012 H   0  0  0  0  0  0
   38.9566    9.8589   15.9874 H   0  0  0  0  0  0
   40.4261    6.1480   15.2762 H   0  0  0  0  0  0
   40.0503    5.0261   13.0829 H   0  0  0  0  0  0
   36.0247    6.5545   12.9738 H   0  0  0  0  0  0
   36.3890    7.6929   15.1628 H   0  0  0  0  0  0
  1  2  2  0  0  0
  2  3  1  0  0  0
  2  4  1  0  0  0
  4  5  1  0  0  0
  4 32  1  0  0  0
  4 33  1  0  0  0
  5  6  1  0  0  0
  6 11  2  0  0  0
  6  7  1  0  0  0
  7  8  1  0  0  0
  7  9  2  0  0  0
  9 10  1  0  0  0
  9 15  1  0  0  0
 10 11  1  0  0  0
 11 12  1  0  0  0
 12 13  2  0  0  0
 12 14  1  0  0  0
 15 20  1  0  0  0
 15 16  2  0  0  0
 16 17  1  0  0  0
 16 34  1  0  0  0
 17 18  2  0  0  0
 17 35  1  0  0  0
 18 19  1  0  0  0
 18 36  1  0  0  0
 19 20  2  0  0  0
 19 21  1  0  0  0
 20 37  1  0  0  0
 21 22  1  0  0  0
 21 38  1  0  0  0
 22 23  2  0  0  0
 22 24  2  0  0  0
 22 25  1  0  0  0
 25 31  1  0  0  0
 25 26  2  0  0  0
 26 27  1  0  0  0
 26 39  1  0  0  0
 27 28  2  0  0  0
 27 40  1  0  0  0
 28 29  1  0  0  0
 28 30  1  0  0  0
 30 31  2  0  0  0
 30 41  1  0  0  0
 31 42  1  0  0  0
M  CHG  2   3  -1  14  -1
M  END
> <s_m_entry_id>
477

> <i_f3d_flags>
0

> <r_epik_Ionization_Penalty>
  0.0488

> <r_epik_State_Penalty>
  0.0416

> <i_epik_Tot_Q>
-2

> <s_m_job_name>
glide-dock_SP_ptp1b_core_cons

> <r_i_docking_score>
-7.37232455674927

> <r_i_glide_gscore>
-7.41392455674927

> <r_i_glide_emodel>
-101.647207024331

$$$$
lig_23483
                    3D
 Schrodinger Suite 2021-4.
 57 60  0  0  1  0            999 V2000
   41.3843   17.4862   11.8311 O   0  0  0  0  0  0
   40.5872   17.3629   12.7925 C   0  0  0  0  0  0
   39.4507   17.8862   12.8352 O   0  5  0  0  0  0
   41.0140   16.5350   14.0128 C   0  0  0  0  0  0
   42.1767   15.7577   13.7429 O   0  0  0  0  0  0
   42.5475   14.9425   14.7588 C   0  0  0  0  0  0
   42.1529   13.5934   14.8941 C   0  0  0  0  0  0
   40.9838   12.8255   13.6367 Br  0  0  0  0  0  0
   42.6208   12.9312   15.9931 C   0  0  0  0  0  0
   43.6529   13.9819   16.9150 S   0  0  0  0  0  0
   43.3723   15.2981   15.7941 C   0  0  0  0  0  0
   44.0197   16.5581   16.1204 C   0  0  0  0  0  0
   43.9902   17.4894   15.2938 O   0  0  0  0  0  0
   44.5838   16.6863   17.2253 O   0  5  0  0  0  0
   42.3633   11.5749   16.4498 C   0  0  0  0  0  0
   43.4053   10.7983   16.9923 C   0  0  0  0  0  0
   43.1672    9.4861   17.4306 C   0  0  0  0  0  0
   41.8811    8.9338   17.3110 C   0  0  0  0  0  0
   40.8263    9.6906   16.7529 C   0  0  0  0  0  0
   41.0734   11.0121   16.3440 C   0  0  0  0  0  0
   39.5357    9.1625   16.6157 N   0  0  0  0  0  0
   39.0895    8.0639   17.4730 C   0  0  0  0  0  0
   39.0472    8.4555   18.9632 C   0  0  0  0  0  0
   37.9606    9.5066   19.2465 C   0  0  0  0  0  0
   36.6338    9.0466   18.7905 N   0  0  1  0  0  0
   36.5909    8.5746   17.3892 C   0  0  0  0  0  0
   37.7016    7.5601   17.0683 C   0  0  0  0  0  0
   35.5094    8.4167   19.9609 S   0  0  0  0  0  0
   35.6326    9.2268   21.1829 O   0  0  0  0  0  0
   34.2046    8.2874   19.2935 O   0  0  0  0  0  0
   36.1344    6.7744   20.3033 C   0  0  0  0  0  0
   37.0115    6.5716   21.3878 C   0  0  0  0  0  0
   37.5012    5.2775   21.6539 C   0  0  0  0  0  0
   37.1092    4.1942   20.8418 C   0  0  0  0  0  0
   36.2237    4.4003   19.7653 C   0  0  0  0  0  0
   35.7293    5.6921   19.4967 C   0  0  0  0  0  0
   41.2004   17.2138   14.8466 H   0  0  0  0  0  0
   40.1878   15.8839   14.3022 H   0  0  0  0  0  0
   44.3988   11.2102   17.0713 H   0  0  0  0  0  0
   43.9715    8.9001   17.8492 H   0  0  0  0  0  0
   41.7361    7.9182   17.6444 H   0  0  0  0  0  0
   40.2563   11.5973   15.9501 H   0  0  0  0  0  0
   38.8563    9.6638   16.0623 H   0  0  0  0  0  0
   39.7754    7.2274   17.3393 H   0  0  0  0  0  0
   38.8592    7.5625   19.5581 H   0  0  0  0  0  0
   40.0127    8.8291   19.3027 H   0  0  0  0  0  0
   37.9358    9.7446   20.3098 H   0  0  0  0  0  0
   38.2032   10.4379   18.7336 H   0  0  0  0  0  0
   35.6325    8.1112   17.1812 H   0  0  0  0  0  0
   36.6758    9.4371   16.7282 H   0  0  0  0  0  0
   37.6855    7.3113   16.0063 H   0  0  0  0  0  0
   37.5014    6.6260   17.5917 H   0  0  0  0  0  0
   37.3135    7.4023   22.0075 H   0  0  0  0  0  0
   38.1771    5.1162   22.4811 H   0  0  0  0  0  0
   37.4866    3.2026   21.0466 H   0  0  0  0  0  0
   35.9250    3.5673   19.1458 H   0  0  0  0  0  0
   35.0502    5.8507   18.6718 H   0  0  0  0  0  0
  1  2  2  0  0  0
  2  3  1  0  0  0
  2  4  1  0  0  0
  4  5  1  0  0  0
  4 37  1  0  0  0
  4 38  1  0  0  0
  5  6  1  0  0  0
  6 11  2  0  0  0
  6  7  1  0  0  0
  7  8  1  0  0  0
  7  9  2  0  0  0
  9 10  1  0  0  0
  9 15  1  0  0  0
 10 11  1  0  0  0
 11 12  1  0  0  0
 12 13  2  0  0  0
 12 14  1  0  0  0
 15 20  1  0  0  0
 15 16  2  0  0  0
 16 17  1  0  0  0
 16 39  1  0  0  0
 17 18  2  0  0  0
 17 40  1  0  0  0
 18 19  1  0  0  0
 18 41  1  0  0  0
 19 20  2  0  0  0
 19 21  1  0  0  0
 20 42  1  0  0  0
 21 22  1  0  0  0
 21 43  1  0  0  0
 22 27  1  0  0  0
 22 23  1  0  0  0
 22 44  1  0  0  0
 23 24  1  0  0  0
 23 45  1  0  0  0
 23 46  1  0  0  0
 24 25  1  0  0  0
 24 47  1  0  0  0
 24 48  1  0  0  0
 25 26  1  0  0  0
 25 28  1  0  0  0
 26 27  1  0  0  0
 26 49  1  0  0  0
 26 50  1  0  0  0
 27 51  1  0  0  0
 27 52  1  0  0  0
 28 29  2  0  0  0
 28 30  2  0  0  0
 28 31  1  0  0  0
 31 36  1  0  0  0
 31 32  2  0  0  0
 32 33  1  0  0  0
 32 53  1  0  0  0
 33 34  2  0  0  0
 33 54  1  0  0  0
 34 35  1  0  0  0
 34 55  1  0  0  0
 35 36  2  0  0  0
 35 56  1  0  0  0
 36 57  1  0  0  0
M  CHG  2   3  -1  14  -1
M  END
> <s_m_entry_id>
478

> <i_f3d_flags>
0

> <r_epik_Ionization_Penalty>
  0.0004

> <r_epik_State_Penalty>
  0.0002

> <i_epik_Tot_Q>
-2

> <s_m_job_name>
glide-dock_SP_ptp1b_core_cons

> <r_i_docking_score>
-7.21445823624087

> <r_i_glide_gscore>
-7.21465823624087

> <r_i_glide_emodel>
-98.7639946596589

$$$$
lig_23477
                    3D
 Schrodinger Suite 2021-4.
 43 45  0  0  1  0            999 V2000
   41.3882   17.4858   11.8195 O   0  0  0  0  0  0
   40.5944   17.3596   12.7834 C   0  0  0  0  0  0
   39.4594   17.8865   12.8324 O   0  5  0  0  0  0
   41.0222   16.5286   14.0009 C   0  0  0  0  0  0
   42.1887   15.7545   13.7337 O   0  0  0  0  0  0
   42.5544   14.9400   14.7515 C   0  0  0  0  0  0
   42.1482   13.5885   14.8901 C   0  0  0  0  0  0
   40.9835   12.8149   13.6346 Br  0  0  0  0  0  0
   42.6041   12.9252   15.9980 C   0  0  0  0  0  0
   43.6333   13.9807   16.9153 S   0  0  0  0  0  0
   43.3709   15.2978   15.7889 C   0  0  0  0  0  0
   44.0134   16.5630   16.1135 C   0  0  0  0  0  0
   43.9715   17.5016   15.2929 O   0  0  0  0  0  0
   44.5840   16.6863   17.2148 O   0  5  0  0  0  0
   42.3470   11.5697   16.4796 C   0  0  0  0  0  0
   43.3840   10.8050   17.0508 C   0  0  0  0  0  0
   43.1472    9.4968   17.5060 C   0  0  0  0  0  0
   41.8663    8.9330   17.3788 C   0  0  0  0  0  0
   40.8135    9.6709   16.7988 C   0  0  0  0  0  0
   41.0637   10.9909   16.3753 C   0  0  0  0  0  0
   39.5232    9.1671   16.5818 N   0  0  0  0  0  0
   39.2560    7.7347   16.5287 C   0  0  0  0  0  0
   37.7381    7.5005   16.4804 C   0  0  0  0  0  0
   37.4128    6.0114   16.2890 C   0  0  0  0  0  0
   38.0366    5.5363   15.1009 O   0  0  0  0  0  0
   39.4559    5.6027   15.1703 C   0  0  0  0  0  0
   39.9043    7.0682   15.2990 C   0  0  0  0  0  0
   41.2044   17.2061   14.8363 H   0  0  0  0  0  0
   40.1957   15.8770   14.2892 H   0  0  0  0  0  0
   44.3743   11.2235   17.1390 H   0  0  0  0  0  0
   43.9481    8.9206   17.9449 H   0  0  0  0  0  0
   41.7097    7.9225   17.7241 H   0  0  0  0  0  0
   40.2516   11.5655   15.9542 H   0  0  0  0  0  0
   38.9406    9.7309   15.9794 H   0  0  0  0  0  0
   39.6364    7.2654   17.4364 H   0  0  0  0  0  0
   37.2716    7.8675   17.3953 H   0  0  0  0  0  0
   37.3001    8.0649   15.6555 H   0  0  0  0  0  0
   37.7388    5.4248   17.1499 H   0  0  0  0  0  0
   36.3357    5.8729   16.1981 H   0  0  0  0  0  0
   39.8033    5.0078   16.0149 H   0  0  0  0  0  0
   39.8791    5.1570   14.2691 H   0  0  0  0  0  0
   39.6244    7.6079   14.3926 H   0  0  0  0  0  0
   40.9915    7.1084   15.3615 H   0  0  0  0  0  0
  1  2  2  0  0  0
  2  3  1  0  0  0
  2  4  1  0  0  0
  4  5  1  0  0  0
  4 28  1  0  0  0
  4 29  1  0  0  0
  5  6  1  0  0  0
  6 11  2  0  0  0
  6  7  1  0  0  0
  7  8  1  0  0  0
  7  9  2  0  0  0
  9 10  1  0  0  0
  9 15  1  0  0  0
 10 11  1  0  0  0
 11 12  1  0  0  0
 12 13  2  0  0  0
 12 14  1  0  0  0
 15 20  1  0  0  0
 15 16  2  0  0  0
 16 17  1  0  0  0
 16 30  1  0  0  0
 17 18  2  0  0  0
 17 31  1  0  0  0
 18 19  1  0  0  0
 18 32  1  0  0  0
 19 20  2  0  0  0
 19 21  1  0  0  0
 20 33  1  0  0  0
 21 22  1  0  0  0
 21 34  1  0  0  0
 22 27  1  0  0  0
 22 23  1  0  0  0
 22 35  1  0  0  0
 23 24  1  0  0  0
 23 36  1  0  0  0
 23 37  1  0  0  0
 24 25  1  0  0  0
 24 38  1  0  0  0
 24 39  1  0  0  0
 25 26  1  0  0  0
 26 27  1  0  0  0
 26 40  1  0  0  0
 26 41  1  0  0  0
 27 42  1  0  0  0
 27 43  1  0  0  0
M  CHG  2   3  -1  14  -1
M  END
> <s_m_entry_id>
479

> <i_f3d_flags>
0

> <r_epik_Ionization_Penalty>
  0.0006

> <r_epik_State_Penalty>
  0.0003

> <i_epik_Tot_Q>
-2

> <s_m_job_name>
glide-dock_SP_ptp1b_core_cons

> <r_i_docking_score>
-6.9795029577115

> <r_i_glide_gscore>
-6.9798029577115

> <r_i_glide_emodel>
-89.7381444321027

$$$$
lig_23482
                    3D
 Schrodinger Suite 2021-4.
 50 52  0  0  1  0            999 V2000
   41.3871   17.4862   11.8630 O   0  0  0  0  0  0
   40.5939   17.3564   12.8274 C   0  0  0  0  0  0
   39.4598   17.8838   12.8874 O   0  5  0  0  0  0
   41.0235   16.5157   14.0345 C   0  0  0  0  0  0
   42.1750   15.7295   13.7461 O   0  0  0  0  0  0
   42.5543   14.9218   14.7631 C   0  0  0  0  0  0
   42.1574   13.5715   14.9078 C   0  0  0  0  0  0
   40.9825   12.7966   13.6582 Br  0  0  0  0  0  0
   42.6271   12.9131   16.0105 C   0  0  0  0  0  0
   43.6477   13.9809   16.9245 S   0  0  0  0  0  0
   43.3736   15.2894   15.7961 C   0  0  0  0  0  0
   44.0150   16.5552   16.1209 C   0  0  0  0  0  0
   43.9820   17.4872   15.2937 O   0  0  0  0  0  0
   44.5756   16.6863   17.2275 O   0  5  0  0  0  0
   42.3672   11.5581   16.4857 C   0  0  0  0  0  0
   43.3938   10.7780   17.0527 C   0  0  0  0  0  0
   43.1432    9.4658   17.4940 C   0  0  0  0  0  0
   41.8540    8.9167   17.3646 C   0  0  0  0  0  0
   40.8173    9.6747   16.7702 C   0  0  0  0  0  0
   41.0803   10.9946   16.3679 C   0  0  0  0  0  0
   39.5206    9.1954   16.5338 N   0  0  0  0  0  0
   39.1739    7.7797   16.6242 C   0  0  0  0  0  0
   37.6444    7.6021   16.5438 C   0  0  0  0  0  0
   37.0874    7.9079   15.1338 C   0  0  0  0  0  0
   37.7584    7.0885   14.1043 N   0  0  2  0  0  0
   37.0965    5.5065   13.8277 S   0  0  0  0  0  0
   37.5038    4.6384   14.9419 O   0  0  0  0  0  0
   35.6679    5.6842   13.5180 O   0  0  0  0  0  0
   37.9419    4.9493   12.3015 C   0  0  0  0  0  0
   39.2305    7.2547   14.1238 C   0  0  0  0  0  0
   39.8269    6.9365   15.5099 C   0  0  0  0  0  0
   41.2258   17.1895   14.8689 H   0  0  0  0  0  0
   40.1916   15.8722   14.3289 H   0  0  0  0  0  0
   44.3871   11.1881   17.1490 H   0  0  0  0  0  0
   43.9393    8.8805   17.9306 H   0  0  0  0  0  0
   41.6797    7.9061   17.7029 H   0  0  0  0  0  0
   40.2721   11.5811   15.9565 H   0  0  0  0  0  0
   38.9674    9.7377   15.8848 H   0  0  0  0  0  0
   39.5082    7.4153   17.5971 H   0  0  0  0  0  0
   37.3878    6.5775   16.8148 H   0  0  0  0  0  0
   37.1554    8.2367   17.2849 H   0  0  0  0  0  0
   36.0094    7.7300   15.1049 H   0  0  0  0  0  0
   37.2335    8.9606   14.8889 H   0  0  0  0  0  0
   37.4035    4.0972   11.8859 H   0  0  0  0  0  0
   37.9605    5.7749   11.5942 H   0  0  0  0  0  0
   38.9591    4.6405   12.5440 H   0  0  0  0  0  0
   39.6992    6.6329   13.3623 H   0  0  0  0  0  0
   39.4669    8.2848   13.8505 H   0  0  0  0  0  0
   40.9087    7.0817   15.4878 H   0  0  0  0  0  0
   39.6845    5.8786   15.7332 H   0  0  0  0  0  0
  1  2  2  0  0  0
  2  3  1  0  0  0
  2  4  1  0  0  0
  4  5  1  0  0  0
  4 32  1  0  0  0
  4 33  1  0  0  0
  5  6  1  0  0  0
  6 11  2  0  0  0
  6  7  1  0  0  0
  7  8  1  0  0  0
  7  9  2  0  0  0
  9 10  1  0  0  0
  9 15  1  0  0  0
 10 11  1  0  0  0
 11 12  1  0  0  0
 12 13  2  0  0  0
 12 14  1  0  0  0
 15 20  1  0  0  0
 15 16  2  0  0  0
 16 17  1  0  0  0
 16 34  1  0  0  0
 17 18  2  0  0  0
 17 35  1  0  0  0
 18 19  1  0  0  0
 18 36  1  0  0  0
 19 20  2  0  0  0
 19 21  1  0  0  0
 20 37  1  0  0  0
 21 22  1  0  0  0
 21 38  1  0  0  0
 22 31  1  0  0  0
 22 23  1  0  0  0
 22 39  1  0  0  0
 23 24  1  0  0  0
 23 40  1  0  0  0
 23 41  1  0  0  0
 24 25  1  0  0  0
 24 42  1  0  0  0
 24 43  1  0  0  0
 25 26  1  0  0  0
 25 30  1  0  0  0
 26 27  2  0  0  0
 26 28  2  0  0  0
 26 29  1  0  0  0
 29 44  1  0  0  0
 29 45  1  0  0  0
 29 46  1  0  0  0
 30 31  1  0  0  0
 30 47  1  0  0  0
 30 48  1  0  0  0
 31 49  1  0  0  0
 31 50  1  0  0  0
M  CHG  2   3  -1  14  -1
M  END
> <s_m_entry_id>
480

> <i_f3d_flags>
0

> <r_epik_Ionization_Penalty>
  0.0005

> <r_epik_State_Penalty>
  0.0002

> <i_epik_Tot_Q>
-2

> <s_m_job_name>
glide-dock_SP_ptp1b_core_cons

> <r_i_docking_score>
-7.32403719952471

> <r_i_glide_gscore>
-7.32423719952471

> <r_i_glide_emodel>
-101.922153737443

$$$$
lig_23476
                    3D
 Schrodinger Suite 2021-4.
 48 50  0  0  1  0            999 V2000
   39.2051   17.4863   12.6794 O   0  0  0  0  0  0
   40.4178   17.1805   12.7593 C   0  0  0  0  0  0
   41.2809   17.4864   11.8995 O   0  5  0  0  0  0
   40.8676   16.3883   13.9947 C   0  0  0  0  0  0
   42.1351   15.7741   13.7748 O   0  0  0  0  0  0
   42.5332   14.9463   14.7690 C   0  0  0  0  0  0
   42.1527   13.5895   14.8939 C   0  0  0  0  0  0
   40.9837   12.8174   13.6421 Br  0  0  0  0  0  0
   42.6136   12.9271   15.9961 C   0  0  0  0  0  0
   43.6328   13.9806   16.9211 S   0  0  0  0  0  0
   43.3597   15.2990   15.7982 C   0  0  0  0  0  0
   43.9984   16.5619   16.1169 C   0  0  0  0  0  0
   44.5840   16.6861   17.2107 O   0  0  0  0  0  0
   43.9452   17.4946   15.2940 O   0  5  0  0  0  0
   42.3564   11.5725   16.4618 C   0  0  0  0  0  0
   43.4005   10.7900   16.9907 C   0  0  0  0  0  0
   43.1556    9.4894   17.4629 C   0  0  0  0  0  0
   41.8585    8.9548   17.3884 C   0  0  0  0  0  0
   40.8024    9.7110   16.8386 C   0  0  0  0  0  0
   41.0610   11.0161   16.3846 C   0  0  0  0  0  0
   39.4893    9.2342   16.7357 N   0  0  0  0  0  0
   39.1276    7.8355   16.9509 C   0  0  0  0  0  0
   37.5972    7.6558   16.8765 C   0  0  0  0  0  0
   36.9370    8.0991   15.5554 C   0  0  0  0  0  0
   37.4884    7.4262   14.2842 C   0  0  0  0  0  0
   38.8789    7.9418   13.8797 C   0  0  0  0  0  0
   40.0611    7.2357   14.5644 C   0  0  0  0  0  0
   39.8614    6.8236   16.0332 C   0  0  0  0  0  0
   40.9052   17.0572   14.8565 H   0  0  0  0  0  0
   40.1161   15.6336   14.2189 H   0  0  0  0  0  0
   44.3996   11.1942   17.0430 H   0  0  0  0  0  0
   43.9586    8.9059   17.8876 H   0  0  0  0  0  0
   41.6992    7.9723   17.8013 H   0  0  0  0  0  0
   40.2435   11.6002   15.9860 H   0  0  0  0  0  0
   38.8588    9.7629   16.1514 H   0  0  0  0  0  0
   39.4066    7.6012   17.9794 H   0  0  0  0  0  0
   37.3471    6.6113   17.0694 H   0  0  0  0  0  0
   37.1395    8.2143   17.6941 H   0  0  0  0  0  0
   35.8710    7.8800   15.6220 H   0  0  0  0  0  0
   37.0054    9.1822   15.4507 H   0  0  0  0  0  0
   37.4891    6.3398   14.3830 H   0  0  0  0  0  0
   36.8020    7.6514   13.4679 H   0  0  0  0  0  0
   39.0093    7.8260   12.8057 H   0  0  0  0  0  0
   38.9361    9.0171   14.0549 H   0  0  0  0  0  0
   40.3242    6.3404   14.0005 H   0  0  0  0  0  0
   40.9349    7.8843   14.4950 H   0  0  0  0  0  0
   40.8424    6.5859   16.4355 H   0  0  0  0  0  0
   39.3416    5.8661   16.0743 H   0  0  0  0  0  0
  1  2  2  0  0  0
  2  3  1  0  0  0
  2  4  1  0  0  0
  4  5  1  0  0  0
  4 29  1  0  0  0
  4 30  1  0  0  0
  5  6  1  0  0  0
  6 11  2  0  0  0
  6  7  1  0  0  0
  7  8  1  0  0  0
  7  9  2  0  0  0
  9 10  1  0  0  0
  9 15  1  0  0  0
 10 11  1  0  0  0
 11 12  1  0  0  0
 12 13  2  0  0  0
 12 14  1  0  0  0
 15 20  1  0  0  0
 15 16  2  0  0  0
 16 17  1  0  0  0
 16 31  1  0  0  0
 17 18  2  0  0  0
 17 32  1  0  0  0
 18 19  1  0  0  0
 18 33  1  0  0  0
 19 20  2  0  0  0
 19 21  1  0  0  0
 20 34  1  0  0  0
 21 22  1  0  0  0
 21 35  1  0  0  0
 22 28  1  0  0  0
 22 23  1  0  0  0
 22 36  1  0  0  0
 23 24  1  0  0  0
 23 37  1  0  0  0
 23 38  1  0  0  0
 24 25  1  0  0  0
 24 39  1  0  0  0
 24 40  1  0  0  0
 25 26  1  0  0  0
 25 41  1  0  0  0
 25 42  1  0  0  0
 26 27  1  0  0  0
 26 43  1  0  0  0
 26 44  1  0  0  0
 27 28  1  0  0  0
 27 45  1  0  0  0
 27 46  1  0  0  0
 28 47  1  0  0  0
 28 48  1  0  0  0
M  CHG  2   3  -1  14  -1
M  END
> <s_m_entry_id>
481

> <i_f3d_flags>
0

> <r_epik_Ionization_Penalty>
  0.0036

> <r_epik_State_Penalty>
  0.0025

> <i_epik_Tot_Q>
-2

> <s_m_job_name>
glide-dock_SP_ptp1b_core_cons

> <r_i_docking_score>
-7.15108381248547

> <r_i_glide_gscore>
-7.15358381248547

> <r_i_glide_emodel>
-91.9708926096857

$$$$
lig_23479
                    3D
 Schrodinger Suite 2021-4.
 49 51  0  0  1  0            999 V2000
   39.4439   17.8863   12.8183 O   0  0  0  0  0  0
   40.5819   17.3640   12.7960 C   0  0  0  0  0  0
   41.3957   17.4847   11.8481 O   0  5  0  0  0  0
   40.9885   16.5411   14.0258 C   0  0  0  0  0  0
   42.1433   15.7527   13.7637 O   0  0  0  0  0  0
   42.5120   14.9433   14.7840 C   0  0  0  0  0  0
   42.1482   13.5789   14.8959 C   0  0  0  0  0  0
   40.9837   12.7926   13.6475 Br  0  0  0  0  0  0
   42.6099   12.9210   15.9969 C   0  0  0  0  0  0
   43.6423   13.9813   16.9089 S   0  0  0  0  0  0
   43.3407   15.3034   15.8069 C   0  0  0  0  0  0
   43.9888   16.5667   16.1164 C   0  0  0  0  0  0
   43.9332   17.5022   15.2938 O   0  0  0  0  0  0
   44.5835   16.6861   17.2058 O   0  5  0  0  0  0
   42.3490   11.5641   16.4561 C   0  0  0  0  0  0
   43.4030   10.7932   16.9862 C   0  0  0  0  0  0
   43.1722    9.4872   17.4439 C   0  0  0  0  0  0
   41.8900    8.9308   17.3461 C   0  0  0  0  0  0
   40.8226    9.6791   16.8158 C   0  0  0  0  0  0
   41.0519   11.0006   16.3790 C   0  0  0  0  0  0
   39.5834    9.0259   16.8207 N   0  0  0  0  0  0
   38.6466    9.2456   15.7403 C   0  0  0  0  0  0
   39.1570    8.6824   14.3907 C   0  0  0  0  0  0
   39.0166    7.1479   14.3104 C   0  0  0  0  0  0
   37.6220    6.7818   14.5911 N   0  0  0  0  0  0
   37.2376    7.1334   15.9631 C   0  0  0  0  0  0
   37.2651    8.6656   16.0961 C   0  0  0  0  0  0
   36.7749    6.3149   13.6416 C   0  0  0  0  0  0
   37.1363    6.0512   12.4960 O   0  0  0  0  0  0
   35.2965    6.1223   13.9862 C   0  0  0  0  0  0
   40.1563   15.8982   14.3173 H   0  0  0  0  0  0
   41.1768   17.2255   14.8549 H   0  0  0  0  0  0
   44.3968   11.2077   17.0474 H   0  0  0  0  0  0
   43.9829    8.9067   17.8579 H   0  0  0  0  0  0
   41.7285    7.9227   17.7010 H   0  0  0  0  0  0
   40.2327   11.5957   16.0070 H   0  0  0  0  0  0
   39.5796    8.0885   17.1971 H   0  0  0  0  0  0
   38.5485   10.3173   15.6940 H   0  0  0  0  0  0
   40.1915    8.9735   14.2109 H   0  0  0  0  0  0
   38.5771    9.1271   13.5802 H   0  0  0  0  0  0
   39.6734    6.6697   15.0386 H   0  0  0  0  0  0
   39.3535    6.7971   13.3334 H   0  0  0  0  0  0
   36.2607    6.7498   16.2557 H   0  0  0  0  0  0
   37.9428    6.6800   16.6603 H   0  0  0  0  0  0
   36.5362    9.0893   15.4087 H   0  0  0  0  0  0
   36.9642    8.9710   17.0988 H   0  0  0  0  0  0
   35.1722    5.3245   14.7172 H   0  0  0  0  0  0
   34.7269    5.8524   13.0971 H   0  0  0  0  0  0
   34.8710    7.0427   14.3846 H   0  0  0  0  0  0
  1  2  2  0  0  0
  2  3  1  0  0  0
  2  4  1  0  0  0
  4  5  1  0  0  0
  4 31  1  0  0  0
  4 32  1  0  0  0
  5  6  1  0  0  0
  6 11  2  0  0  0
  6  7  1  0  0  0
  7  8  1  0  0  0
  7  9  2  0  0  0
  9 10  1  0  0  0
  9 15  1  0  0  0
 10 11  1  0  0  0
 11 12  1  0  0  0
 12 13  2  0  0  0
 12 14  1  0  0  0
 15 20  1  0  0  0
 15 16  2  0  0  0
 16 17  1  0  0  0
 16 33  1  0  0  0
 17 18  2  0  0  0
 17 34  1  0  0  0
 18 19  1  0  0  0
 18 35  1  0  0  0
 19 20  2  0  0  0
 19 21  1  0  0  0
 20 36  1  0  0  0
 21 22  1  0  0  0
 21 37  1  0  0  0
 22 27  1  0  0  0
 22 23  1  0  0  0
 22 38  1  0  0  0
 23 24  1  0  0  0
 23 39  1  0  0  0
 23 40  1  0  0  0
 24 25  1  0  0  0
 24 41  1  0  0  0
 24 42  1  0  0  0
 25 26  1  0  0  0
 25 28  1  0  0  0
 26 27  1  0  0  0
 26 43  1  0  0  0
 26 44  1  0  0  0
 27 45  1  0  0  0
 27 46  1  0  0  0
 28 29  2  0  0  0
 28 30  1  0  0  0
 30 47  1  0  0  0
 30 48  1  0  0  0
 30 49  1  0  0  0
M  CHG  2   3  -1  14  -1
M  END
> <s_m_entry_id>
482

> <i_f3d_flags>
0

> <r_epik_Ionization_Penalty>
  0.0007

> <r_epik_State_Penalty>
  0.0004

> <i_epik_Tot_Q>
-2

> <s_m_job_name>
glide-dock_SP_ptp1b_core_cons

> <r_i_docking_score>
-7.45659525095821

> <r_i_glide_gscore>
-7.45699525095821

> <r_i_glide_emodel>
-100.985144000008

$$$$
lig_23469
                    3D
 Schrodinger Suite 2021-4.
 41 43  0  0  1  0            999 V2000
   41.3896   17.4862   11.7972 O   0  0  0  0  0  0
   40.5916   17.3568   12.7571 C   0  0  0  0  0  0
   39.4578   17.8855   12.8046 O   0  5  0  0  0  0
   41.0146   16.5176   13.9719 C   0  0  0  0  0  0
   42.1895   15.7519   13.7118 O   0  0  0  0  0  0
   42.5553   14.9387   14.7312 C   0  0  0  0  0  0
   42.1467   13.5894   14.8752 C   0  0  0  0  0  0
   40.9837   12.8233   13.6126 Br  0  0  0  0  0  0
   42.6054   12.9246   15.9806 C   0  0  0  0  0  0
   43.6006   13.9993   16.9202 S   0  0  0  0  0  0
   43.3568   15.3038   15.7777 C   0  0  0  0  0  0
   43.9917   16.5707   16.1039 C   0  0  0  0  0  0
   44.5836   16.6863   17.1953 O   0  0  0  0  0  0
   43.9247   17.5161   15.2940 O   0  5  0  0  0  0
   42.3462   11.5624   16.4469 C   0  0  0  0  0  0
   41.0496   11.0126   16.3544 C   0  0  0  0  0  0
   40.7894    9.6944   16.7665 C   0  0  0  0  0  0
   41.8158    8.9240   17.3363 C   0  0  0  0  0  0
   43.1081    9.4734   17.4961 C   0  0  0  0  0  0
   43.3727   10.7739   17.0125 C   0  0  0  0  0  0
   44.1290    8.7966   18.2170 N   0  0  0  0  0  0
   43.9597    8.1543   19.3933 C   0  0  0  0  0  0
   42.8566    7.8920   19.8711 O   0  0  0  0  0  0
   45.2087    7.7585   20.1420 C   0  0  0  0  0  0
   45.0962    7.0125   21.3387 C   0  0  0  0  0  0
   46.2365    6.6917   22.1004 C   0  0  0  0  0  0
   47.5070    7.1280   21.6848 C   0  0  0  0  0  0
   47.6367    7.8674   20.4941 C   0  0  0  0  0  0
   46.4973    8.1599   19.7191 C   0  0  0  0  0  0
   41.1820   17.1886   14.8156 H   0  0  0  0  0  0
   40.1885   15.8591   14.2440 H   0  0  0  0  0  0
   40.2357   11.5975   15.9536 H   0  0  0  0  0  0
   39.7954    9.2826   16.6694 H   0  0  0  0  0  0
   41.5889    7.9233   17.6770 H   0  0  0  0  0  0
   44.3583   11.1970   17.1211 H   0  0  0  0  0  0
   45.0751    9.0343   17.9712 H   0  0  0  0  0  0
   44.1261    6.6862   21.6876 H   0  0  0  0  0  0
   46.1314    6.1236   23.0131 H   0  0  0  0  0  0
   48.3809    6.8962   22.2755 H   0  0  0  0  0  0
   48.6123    8.1979   20.1687 H   0  0  0  0  0  0
   46.6355    8.6890   18.7948 H   0  0  0  0  0  0
  1  2  2  0  0  0
  2  3  1  0  0  0
  2  4  1  0  0  0
  4  5  1  0  0  0
  4 30  1  0  0  0
  4 31  1  0  0  0
  5  6  1  0  0  0
  6 11  2  0  0  0
  6  7  1  0  0  0
  7  8  1  0  0  0
  7  9  2  0  0  0
  9 10  1  0  0  0
  9 15  1  0  0  0
 10 11  1  0  0  0
 11 12  1  0  0  0
 12 13  2  0  0  0
 12 14  1  0  0  0
 15 20  1  0  0  0
 15 16  2  0  0  0
 16 17  1  0  0  0
 16 32  1  0  0  0
 17 18  2  0  0  0
 17 33  1  0  0  0
 18 19  1  0  0  0
 18 34  1  0  0  0
 19 20  2  0  0  0
 19 21  1  0  0  0
 20 35  1  0  0  0
 21 22  1  0  0  0
 21 36  1  0  0  0
 22 23  2  0  0  0
 22 24  1  0  0  0
 24 29  1  0  0  0
 24 25  2  0  0  0
 25 26  1  0  0  0
 25 37  1  0  0  0
 26 27  2  0  0  0
 26 38  1  0  0  0
 27 28  1  0  0  0
 27 39  1  0  0  0
 28 29  2  0  0  0
 28 40  1  0  0  0
 29 41  1  0  0  0
M  CHG  2   3  -1  14  -1
M  END
> <s_m_entry_id>
483

> <i_f3d_flags>
0

> <r_epik_Ionization_Penalty>
  0.0001

> <r_epik_State_Penalty>
  0.0000

> <i_epik_Tot_Q>
-2

> <s_m_job_name>
glide-dock_SP_ptp1b_core_cons

> <r_lp_tautomer_probability>
1

> <r_i_docking_score>
-6.572958053783

> <r_i_glide_gscore>
-6.572958053783

> <r_i_glide_emodel>
-86.0223340428582

$$$$
lig_23471
                    3D
 Schrodinger Suite 2021-4.
 35 36  0  0  1  0            999 V2000
   41.4032   17.4858   11.8526 O   0  0  0  0  0  0
   40.6051   17.3673   12.8113 C   0  0  0  0  0  0
   39.4693   17.8872   12.8570 O   0  5  0  0  0  0
   41.0232   16.5360   14.0249 C   0  0  0  0  0  0
   42.1531   15.7161   13.7285 O   0  0  0  0  0  0
   42.5394   14.9136   14.7450 C   0  0  0  0  0  0
   42.1458   13.5656   14.8929 C   0  0  0  0  0  0
   40.9836   12.7729   13.6518 Br  0  0  0  0  0  0
   42.6102   12.9150   15.9997 C   0  0  0  0  0  0
   43.6392   13.9840   16.9058 S   0  0  0  0  0  0
   43.3472   15.2879   15.7761 C   0  0  0  0  0  0
   43.9540   16.5688   16.0915 C   0  0  0  0  0  0
   44.5837   16.6850   17.1572 O   0  0  0  0  0  0
   43.8323   17.5238   15.2925 O   0  5  0  0  0  0
   42.3433   11.5646   16.4806 C   0  0  0  0  0  0
   41.0422   11.0202   16.4093 C   0  0  0  0  0  0
   40.7901    9.7093   16.8342 C   0  0  0  0  0  0
   41.8291    8.9329   17.3764 C   0  0  0  0  0  0
   43.1218    9.4781   17.4910 C   0  0  0  0  0  0
   43.3810   10.7767   17.0174 C   0  0  0  0  0  0
   44.1808    8.7080   18.0213 N   0  0  0  0  0  0
   44.2686    8.2220   19.3169 C   0  0  0  0  0  0
   43.4125    8.3091   20.1935 O   0  0  0  0  0  0
   45.4804    7.6596   19.4659 O   0  0  0  0  0  0
   45.8792    7.2071   20.7562 C   0  0  0  0  0  0
   41.2406   17.2095   14.8489 H   0  0  0  0  0  0
   40.1787   15.9144   14.3338 H   0  0  0  0  0  0
   40.2268   11.6076   16.0346 H   0  0  0  0  0  0
   39.7982    9.2913   16.7561 H   0  0  0  0  0  0
   41.6245    7.9279   17.7232 H   0  0  0  0  0  0
   44.3821   11.1710   17.0717 H   0  0  0  0  0  0
   45.0235    8.6096   17.4616 H   0  0  0  0  0  0
   46.8728    6.7621   20.6992 H   0  0  0  0  0  0
   45.9158    8.0260   21.4567 H   0  0  0  0  0  0
   45.1896    6.4461   21.1299 H   0  0  0  0  0  0
  1  2  2  0  0  0
  2  3  1  0  0  0
  2  4  1  0  0  0
  4  5  1  0  0  0
  4 26  1  0  0  0
  4 27  1  0  0  0
  5  6  1  0  0  0
  6 11  2  0  0  0
  6  7  1  0  0  0
  7  8  1  0  0  0
  7  9  2  0  0  0
  9 10  1  0  0  0
  9 15  1  0  0  0
 10 11  1  0  0  0
 11 12  1  0  0  0
 12 13  2  0  0  0
 12 14  1  0  0  0
 15 20  1  0  0  0
 15 16  2  0  0  0
 16 17  1  0  0  0
 16 28  1  0  0  0
 17 18  2  0  0  0
 17 29  1  0  0  0
 18 19  1  0  0  0
 18 30  1  0  0  0
 19 20  2  0  0  0
 19 21  1  0  0  0
 20 31  1  0  0  0
 21 22  1  0  0  0
 21 32  1  0  0  0
 22 23  2  0  0  0
 22 24  1  0  0  0
 24 25  1  0  0  0
 25 33  1  0  0  0
 25 34  1  0  0  0
 25 35  1  0  0  0
M  CHG  2   3  -1  14  -1
M  END
> <s_m_entry_id>
484

> <i_f3d_flags>
0

> <r_epik_Ionization_Penalty>
  0.0001

> <r_epik_State_Penalty>
  0.0000

> <i_epik_Tot_Q>
-2

> <s_m_job_name>
glide-dock_SP_ptp1b_core_cons

> <r_lp_tautomer_probability>
1

> <r_i_docking_score>
-5.9223343726021

> <r_i_glide_gscore>
-5.9223343726021

> <r_i_glide_emodel>
-79.54462072008

$$$$
lig_23467
                    3D
 Schrodinger Suite 2021-4.
 31 32  0  0  1  0            999 V2000
   41.4214   17.4860   11.8345 O   0  0  0  0  0  0
   40.5869   17.3534   12.7601 C   0  0  0  0  0  0
   39.4517   17.8753   12.7561 O   0  5  0  0  0  0
   40.9661   16.5075   13.9872 C   0  0  0  0  0  0
   42.1042   15.6985   13.7056 O   0  0  0  0  0  0
   42.5108   14.9208   14.7335 C   0  0  0  0  0  0
   42.1515   13.5691   14.9018 C   0  0  0  0  0  0
   40.9833   12.7304   13.6943 Br  0  0  0  0  0  0
   42.6195   12.9326   16.0165 C   0  0  0  0  0  0
   43.6383   14.0144   16.9080 S   0  0  0  0  0  0
   43.3300   15.3090   15.7570 C   0  0  0  0  0  0
   43.9490   16.5857   16.0578 C   0  0  0  0  0  0
   44.5817   16.6800   17.1282 O   0  0  0  0  0  0
   43.8213   17.5421   15.2634 O   0  5  0  0  0  0
   42.3592   11.5725   16.4962 C   0  0  0  0  0  0
   43.4115   10.7947   17.0272 C   0  0  0  0  0  0
   43.1708    9.4779   17.4620 C   0  0  0  0  0  0
   41.8857    8.9268   17.3497 C   0  0  0  0  0  0
   40.8133    9.6812   16.8208 C   0  0  0  0  0  0
   41.0584   11.0120   16.4233 C   0  0  0  0  0  0
   39.5400    9.1680   16.6779 O   0  0  0  0  0  0
   39.3806    7.7623   16.8590 C   0  0  0  0  0  0
   41.1722   17.1824   14.8192 H   0  0  0  0  0  0
   40.1288   15.8760   14.2922 H   0  0  0  0  0  0
   44.4071   11.1976   17.1022 H   0  0  0  0  0  0
   43.9706    8.8873   17.8844 H   0  0  0  0  0  0
   41.7315    7.9181   17.7023 H   0  0  0  0  0  0
   40.2364   11.6058   16.0521 H   0  0  0  0  0  0
   38.3609    7.4648   16.6354 H   0  0  0  0  0  0
   40.0319    7.1996   16.1894 H   0  0  0  0  0  0
   39.5804    7.4500   17.8842 H   0  0  0  0  0  0
  1  2  2  0  0  0
  2  3  1  0  0  0
  2  4  1  0  0  0
  4  5  1  0  0  0
  4 23  1  0  0  0
  4 24  1  0  0  0
  5  6  1  0  0  0
  6 11  2  0  0  0
  6  7  1  0  0  0
  7  8  1  0  0  0
  7  9  2  0  0  0
  9 10  1  0  0  0
  9 15  1  0  0  0
 10 11  1  0  0  0
 11 12  1  0  0  0
 12 13  2  0  0  0
 12 14  1  0  0  0
 15 20  1  0  0  0
 15 16  2  0  0  0
 16 17  1  0  0  0
 16 25  1  0  0  0
 17 18  2  0  0  0
 17 26  1  0  0  0
 18 19  1  0  0  0
 18 27  1  0  0  0
 19 20  2  0  0  0
 19 21  1  0  0  0
 20 28  1  0  0  0
 21 22  1  0  0  0
 22 29  1  0  0  0
 22 30  1  0  0  0
 22 31  1  0  0  0
M  CHG  2   3  -1  14  -1
M  END
> <s_m_entry_id>
485

> <i_f3d_flags>
0

> <r_epik_Ionization_Penalty>
  0.0001

> <r_epik_State_Penalty>
  0.0000

> <i_epik_Tot_Q>
-2

> <s_m_job_name>
glide-dock_SP_ptp1b_core_cons

> <r_lp_tautomer_probability>
1

> <r_i_docking_score>
-7.13662075755738

> <r_i_glide_gscore>
-7.13662075755738

> <r_i_glide_emodel>
-84.0321787237541

$$$$
lig_23486
                    3D
 Schrodinger Suite 2021-4.
 60 63  0  0  1  0            999 V2000
   39.4727   17.8855   12.7664 O   0  0  0  0  0  0
   40.5762   17.2987   12.6887 C   0  0  0  0  0  0
   41.3990   17.4711   11.7581 O   0  5  0  0  0  0
   40.8934   16.2937   13.8025 C   0  0  0  0  0  0
   42.1902   15.7232   13.6701 O   0  0  0  0  0  0
   42.5398   14.9152   14.7002 C   0  0  0  0  0  0
   42.1447   13.5611   14.8507 C   0  0  0  0  0  0
   41.1080   12.8824   13.6940 Cl  0  0  0  0  0  0
   42.6053   12.9355   15.9752 C   0  0  0  0  0  0
   43.6177   14.0077   16.8838 S   0  0  0  0  0  0
   43.3374   15.3039   15.7369 C   0  0  0  0  0  0
   43.9348   16.5880   16.0682 C   0  0  0  0  0  0
   43.7852   17.5563   15.2939 O   0  0  0  0  0  0
   44.5859   16.6862   17.1287 O   0  5  0  0  0  0
   42.3518   11.5851   16.4613 C   0  0  0  0  0  0
   43.3982   10.8205   17.0143 C   0  0  0  0  0  0
   43.1730    9.5031   17.4457 C   0  0  0  0  0  0
   41.8928    8.9389   17.3251 C   0  0  0  0  0  0
   40.8319    9.6810   16.7727 C   0  0  0  0  0  0
   41.0688   11.0038   16.3520 C   0  0  0  0  0  0
   39.5527    9.1399   16.6081 N   0  0  0  0  0  0
   39.1734    7.8496   17.1820 C   0  0  0  0  0  0
   39.1432    7.8530   18.7233 C   0  0  0  0  0  0
   38.1031    8.8381   19.2695 C   0  0  0  0  0  0
   36.7669    8.6040   18.6874 N   0  0  3  0  0  0
   36.6957    8.4017   17.2255 C   0  0  0  0  0  0
   37.7799    7.4442   16.7045 C   0  0  0  0  0  0
   35.4209    8.1831   19.6930 S   0  0  0  0  0  0
   35.7296    8.6307   21.0596 O   0  0  0  0  0  0
   34.2193    8.6853   19.0115 O   0  0  0  0  0  0
   35.4319    6.3326   19.6643 C   0  0  0  0  0  0
   34.3999    5.7791   18.6915 C   0  0  0  0  0  0
   34.8112    5.1325   17.5079 C   0  0  0  0  0  0
   33.8551    4.6170   16.6108 C   0  0  0  0  0  0
   32.4819    4.7360   16.8939 C   0  0  0  0  0  0
   32.0637    5.3746   18.0755 C   0  0  0  0  0  0
   33.0203    5.8877   18.9740 C   0  0  0  0  0  0
   40.7952   16.8006   14.7647 H   0  0  0  0  0  0
   40.1503   15.4967   13.7701 H   0  0  0  0  0  0
   44.3880   11.2386   17.0922 H   0  0  0  0  0  0
   43.9842    8.9264   17.8667 H   0  0  0  0  0  0
   41.7615    7.9194   17.6480 H   0  0  0  0  0  0
   40.2494   11.5703   15.9330 H   0  0  0  0  0  0
   38.9075    9.6043   15.9816 H   0  0  0  0  0  0
   39.8814    7.0987   16.8277 H   0  0  0  0  0  0
   38.9138    6.8504   19.0839 H   0  0  0  0  0  0
   40.1161    8.0952   19.1457 H   0  0  0  0  0  0
   38.0688    8.7646   20.3552 H   0  0  0  0  0  0
   38.4055    9.8615   19.0439 H   0  0  0  0  0  0
   35.7291    7.9946   16.9540 H   0  0  0  0  0  0
   36.7754    9.3700   16.7317 H   0  0  0  0  0  0
   37.7474    7.4016   15.6148 H   0  0  0  0  0  0
   37.5723    6.4324   17.0536 H   0  0  0  0  0  0
   36.4419    5.9878   19.4417 H   0  0  0  0  0  0
   35.1907    5.9900   20.6691 H   0  0  0  0  0  0
   35.8591    5.0128   17.2823 H   0  0  0  0  0  0
   34.1832    4.1183   15.7107 H   0  0  0  0  0  0
   31.7542    4.3309   16.2043 H   0  0  0  0  0  0
   31.0097    5.4665   18.2996 H   0  0  0  0  0  0
   32.6880    6.3739   19.8817 H   0  0  0  0  0  0
  1  2  2  0  0  0
  2  3  1  0  0  0
  2  4  1  0  0  0
  4  5  1  0  0  0
  4 38  1  0  0  0
  4 39  1  0  0  0
  5  6  1  0  0  0
  6 11  2  0  0  0
  6  7  1  0  0  0
  7  8  1  0  0  0
  7  9  2  0  0  0
  9 10  1  0  0  0
  9 15  1  0  0  0
 10 11  1  0  0  0
 11 12  1  0  0  0
 12 13  2  0  0  0
 12 14  1  0  0  0
 15 20  1  0  0  0
 15 16  2  0  0  0
 16 17  1  0  0  0
 16 40  1  0  0  0
 17 18  2  0  0  0
 17 41  1  0  0  0
 18 19  1  0  0  0
 18 42  1  0  0  0
 19 20  2  0  0  0
 19 21  1  0  0  0
 20 43  1  0  0  0
 21 22  1  0  0  0
 21 44  1  0  0  0
 22 27  1  0  0  0
 22 23  1  0  0  0
 22 45  1  0  0  0
 23 24  1  0  0  0
 23 46  1  0  0  0
 23 47  1  0  0  0
 24 25  1  0  0  0
 24 48  1  0  0  0
 24 49  1  0  0  0
 25 26  1  0  0  0
 25 28  1  0  0  0
 26 27  1  0  0  0
 26 50  1  0  0  0
 26 51  1  0  0  0
 27 52  1  0  0  0
 27 53  1  0  0  0
 28 29  2  0  0  0
 28 30  2  0  0  0
 28 31  1  0  0  0
 31 32  1  0  0  0
 31 54  1  0  0  0
 31 55  1  0  0  0
 32 37  1  0  0  0
 32 33  2  0  0  0
 33 34  1  0  0  0
 33 56  1  0  0  0
 34 35  2  0  0  0
 34 57  1  0  0  0
 35 36  1  0  0  0
 35 58  1  0  0  0
 36 37  2  0  0  0
 36 59  1  0  0  0
 37 60  1  0  0  0
M  CHG  2   3  -1  14  -1
M  END
> <s_m_entry_id>
486

> <i_f3d_flags>
0

> <r_epik_Ionization_Penalty>
  0.0005

> <r_epik_State_Penalty>
  0.0002

> <i_epik_Tot_Q>
-2

> <s_m_job_name>
glide-dock_SP_ptp1b_core_cons

> <r_i_docking_score>
-7.54206151672868

> <r_i_glide_gscore>
-7.54226151672868

> <r_i_glide_emodel>
-108.198690374042

$$$$
lig_23480
                    3D
 Schrodinger Suite 2021-4.
 53 55  0  0  1  0            999 V2000
   39.3732   17.4857   12.5019 O   0  0  0  0  0  0
   40.5866   17.2019   12.6323 C   0  0  0  0  0  0
   41.4743   17.4863   11.7847 O   0  5  0  0  0  0
   40.9961   16.4601   13.9108 C   0  0  0  0  0  0
   42.2278   15.7633   13.7267 O   0  0  0  0  0  0
   42.5453   14.9501   14.7586 C   0  0  0  0  0  0
   42.1507   13.5914   14.8672 C   0  0  0  0  0  0
   40.9619   12.8780   13.6015 Br  0  0  0  0  0  0
   42.6031   12.9252   15.9775 C   0  0  0  0  0  0
   43.6199   13.9877   16.9053 S   0  0  0  0  0  0
   43.3735   15.2957   15.7839 C   0  0  0  0  0  0
   44.0300   16.5491   16.0992 C   0  0  0  0  0  0
   44.0163   17.4872   15.2901 O   0  0  0  0  0  0
   44.5840   16.6855   17.2060 O   0  5  0  0  0  0
   42.3378   11.5715   16.4662 C   0  0  0  0  0  0
   43.3824   10.7972   17.0262 C   0  0  0  0  0  0
   43.1442    9.4938   17.4889 C   0  0  0  0  0  0
   41.8579    8.9307   17.3796 C   0  0  0  0  0  0
   40.8036    9.6768   16.7977 C   0  0  0  0  0  0
   41.0474   10.9972   16.3738 C   0  0  0  0  0  0
   39.5074    9.1544   16.6671 N   0  0  0  0  0  0
   39.3402    7.7454   16.3402 C   0  0  0  0  0  0
   38.8957    7.5456   14.8786 C   0  0  0  0  0  0
   39.0219    6.0762   14.4627 C   0  0  0  0  0  0
   38.5330    5.8397   13.0259 C   0  0  0  0  0  0
   37.1466    6.3119   12.8940 N   0  0  0  0  0  0
   36.9646    7.7437   13.2051 C   0  0  0  0  0  0
   37.4435    8.0340   14.6394 C   0  0  0  0  0  0
   36.0838    5.5441   12.3890 C   0  0  0  0  0  0
   34.9673    5.9753   12.0883 O   0  0  0  0  0  0
   36.4392    4.2548   12.2595 O   0  0  0  0  0  0
   35.5043    3.2915   11.7957 C   0  0  0  0  0  0
   41.1007   17.1871   14.7270 H   0  0  0  0  0  0
   40.1950   15.7673   14.1942 H   0  0  0  0  0  0
   44.3731   11.2223   17.0955 H   0  0  0  0  0  0
   43.9460    8.9207   17.9301 H   0  0  0  0  0  0
   41.7029    7.9399   17.7724 H   0  0  0  0  0  0
   40.2350   11.5874   15.9429 H   0  0  0  0  0  0
   38.8183    9.7847   16.2693 H   0  0  0  0  0  0
   40.2600    7.1824   16.4748 H   0  0  0  0  0  0
   38.6078    7.3094   17.0172 H   0  0  0  0  0  0
   39.5596    8.1253   14.2227 H   0  0  0  0  0  0
   40.0674    5.7583   14.5392 H   0  0  0  0  0  0
   38.4577    5.4395   15.1470 H   0  0  0  0  0  0
   39.1644    6.3987   12.3327 H   0  0  0  0  0  0
   38.6949    4.8033   12.7714 H   0  0  0  0  0  0
   37.5205    8.3548   12.4942 H   0  0  0  0  0  0
   35.9188    8.0604   13.1174 H   0  0  0  0  0  0
   36.7761    7.5477   15.3482 H   0  0  0  0  0  0
   37.3756    9.1084   14.8218 H   0  0  0  0  0  0
   35.9830    2.3136   11.7954 H   0  0  0  0  0  0
   34.6346    3.2483   12.4450 H   0  0  0  0  0  0
   35.1854    3.5203   10.7852 H   0  0  0  0  0  0
  1  2  2  0  0  0
  2  3  1  0  0  0
  2  4  1  0  0  0
  4  5  1  0  0  0
  4 33  1  0  0  0
  4 34  1  0  0  0
  5  6  1  0  0  0
  6 11  2  0  0  0
  6  7  1  0  0  0
  7  8  1  0  0  0
  7  9  2  0  0  0
  9 10  1  0  0  0
  9 15  1  0  0  0
 10 11  1  0  0  0
 11 12  1  0  0  0
 12 13  2  0  0  0
 12 14  1  0  0  0
 15 20  1  0  0  0
 15 16  2  0  0  0
 16 17  1  0  0  0
 16 35  1  0  0  0
 17 18  2  0  0  0
 17 36  1  0  0  0
 18 19  1  0  0  0
 18 37  1  0  0  0
 19 20  2  0  0  0
 19 21  1  0  0  0
 20 38  1  0  0  0
 21 22  1  0  0  0
 21 39  1  0  0  0
 22 23  1  0  0  0
 22 40  1  0  0  0
 22 41  1  0  0  0
 23 28  1  0  0  0
 23 24  1  0  0  0
 23 42  1  0  0  0
 24 25  1  0  0  0
 24 43  1  0  0  0
 24 44  1  0  0  0
 25 26  1  0  0  0
 25 45  1  0  0  0
 25 46  1  0  0  0
 26 27  1  0  0  0
 26 29  1  0  0  0
 27 28  1  0  0  0
 27 47  1  0  0  0
 27 48  1  0  0  0
 28 49  1  0  0  0
 28 50  1  0  0  0
 29 30  2  0  0  0
 29 31  1  0  0  0
 31 32  1  0  0  0
 32 51  1  0  0  0
 32 52  1  0  0  0
 32 53  1  0  0  0
M  CHG  2   3  -1  14  -1
M  END
> <s_m_entry_id>
487

> <i_f3d_flags>
0

> <r_epik_Ionization_Penalty>
  0.0017

> <r_epik_State_Penalty>
  0.0010

> <i_epik_Tot_Q>
-2

> <s_m_job_name>
glide-dock_SP_ptp1b_core_cons

> <r_i_docking_score>
-7.34787779751744

> <r_i_glide_gscore>
-7.34887779751744

> <r_i_glide_emodel>
-102.400992011212

$$$$
lig_23470
                    3D
 Schrodinger Suite 2021-4.
 42 43  0  0  1  0            999 V2000
   41.4227   17.4866   11.7912 O   0  0  0  0  0  0
   40.5224   17.1353   12.5915 C   0  0  0  0  0  0
   39.3219   17.4863   12.4978 O   0  5  0  0  0  0
   40.8846   16.2328   13.7804 C   0  0  0  0  0  0
   42.1994   15.6982   13.6757 O   0  0  0  0  0  0
   42.5464   14.8995   14.7126 C   0  0  0  0  0  0
   42.1538   13.5544   14.8775 C   0  0  0  0  0  0
   40.9839   12.7139   13.6686 Br  0  0  0  0  0  0
   42.6063   12.9174   15.9997 C   0  0  0  0  0  0
   43.6125   13.9933   16.9107 S   0  0  0  0  0  0
   43.3343   15.2888   15.7605 C   0  0  0  0  0  0
   43.9290   16.5755   16.0865 C   0  0  0  0  0  0
   43.7850   17.5337   15.2939 O   0  0  0  0  0  0
   44.5699   16.6818   17.1472 O   0  5  0  0  0  0
   42.3461   11.5661   16.4809 C   0  0  0  0  0  0
   43.3921   10.7807   17.0095 C   0  0  0  0  0  0
   43.1572    9.4650   17.4374 C   0  0  0  0  0  0
   41.8690    8.9146   17.3313 C   0  0  0  0  0  0
   40.8084    9.6873   16.7987 C   0  0  0  0  0  0
   41.0511   11.0077   16.3954 C   0  0  0  0  0  0
   39.4980    9.1576   16.6648 N   0  0  0  0  0  0
   38.8866    8.3170   17.5180 C   0  0  0  0  0  0
   39.3293    8.0028   18.6219 O   0  0  0  0  0  0
   37.7077    7.8803   17.0500 N   0  0  0  0  0  0
   36.8147    6.9715   17.7653 C   0  0  0  0  0  0
   35.9778    6.1799   16.7491 C   0  0  0  0  0  0
   35.9473    7.7551   18.7636 C   0  0  0  0  0  0
   40.7784   16.8060   14.7044 H   0  0  0  0  0  0
   40.1704   15.4132   13.8246 H   0  0  0  0  0  0
   44.3903   11.1836   17.0734 H   0  0  0  0  0  0
   43.9650    8.8723   17.8404 H   0  0  0  0  0  0
   41.7076    7.8974   17.6650 H   0  0  0  0  0  0
   40.2322   11.6014   16.0246 H   0  0  0  0  0  0
   38.9802    9.4656   15.8551 H   0  0  0  0  0  0
   37.4177    8.1668   16.1285 H   0  0  0  0  0  0
   37.4121    6.2486   18.3271 H   0  0  0  0  0  0
   35.2956    5.4906   17.2484 H   0  0  0  0  0  0
   35.3838    6.8367   16.1141 H   0  0  0  0  0  0
   36.6198    5.5828   16.0996 H   0  0  0  0  0  0
   35.2413    7.1026   19.2790 H   0  0  0  0  0  0
   36.5662    8.2285   19.5271 H   0  0  0  0  0  0
   35.3836    8.5432   18.2687 H   0  0  0  0  0  0
  1  2  2  0  0  0
  2  3  1  0  0  0
  2  4  1  0  0  0
  4  5  1  0  0  0
  4 28  1  0  0  0
  4 29  1  0  0  0
  5  6  1  0  0  0
  6 11  2  0  0  0
  6  7  1  0  0  0
  7  8  1  0  0  0
  7  9  2  0  0  0
  9 10  1  0  0  0
  9 15  1  0  0  0
 10 11  1  0  0  0
 11 12  1  0  0  0
 12 13  2  0  0  0
 12 14  1  0  0  0
 15 20  1  0  0  0
 15 16  2  0  0  0
 16 17  1  0  0  0
 16 30  1  0  0  0
 17 18  2  0  0  0
 17 31  1  0  0  0
 18 19  1  0  0  0
 18 32  1  0  0  0
 19 20  2  0  0  0
 19 21  1  0  0  0
 20 33  1  0  0  0
 21 22  1  0  0  0
 21 34  1  0  0  0
 22 23  2  0  0  0
 22 24  1  0  0  0
 24 25  1  0  0  0
 24 35  1  0  0  0
 25 26  1  0  0  0
 25 27  1  0  0  0
 25 36  1  0  0  0
 26 37  1  0  0  0
 26 38  1  0  0  0
 26 39  1  0  0  0
 27 40  1  0  0  0
 27 41  1  0  0  0
 27 42  1  0  0  0
M  CHG  2   3  -1  14  -1
M  END
> <s_m_entry_id>
488

> <i_f3d_flags>
0

> <r_epik_Ionization_Penalty>
  0.0001

> <r_epik_State_Penalty>
  0.0000

> <i_epik_Tot_Q>
-2

> <s_m_job_name>
glide-dock_SP_ptp1b_core_cons

> <r_lp_tautomer_probability>
1

> <r_i_docking_score>
-6.49212701748119

> <r_i_glide_gscore>
-6.49212701748119

> <r_i_glide_emodel>
-85.3972569241461

$$$$
lig_20669_2qbr
                    3D
 Schrodinger Suite 2021-4.
 42 44  0  0  1  0            999 V2000
   41.3878   17.4853   11.8420 O   0  0  0  0  0  0
   40.5928   17.3614   12.8046 C   0  0  0  0  0  0
   39.4572   17.8863   12.8516 O   0  5  0  0  0  0
   41.0203   16.5291   14.0216 C   0  0  0  0  0  0
   42.1758   15.7417   13.7454 O   0  0  0  0  0  0
   42.5524   14.9322   14.7634 C   0  0  0  0  0  0
   42.1617   13.5839   14.9088 C   0  0  0  0  0  0
   40.9837   12.7804   13.6855 Br  0  0  0  0  0  0
   42.6173   12.9262   16.0181 C   0  0  0  0  0  0
   43.6436   13.9817   16.9310 S   0  0  0  0  0  0
   43.3747   15.2926   15.7991 C   0  0  0  0  0  0
   44.0202   16.5553   16.1218 C   0  0  0  0  0  0
   44.5838   16.6863   17.2266 O   0  0  0  0  0  0
   43.9892   17.4863   15.2939 O   0  5  0  0  0  0
   42.3498   11.5739   16.4989 C   0  0  0  0  0  0
   43.3847   10.7869   17.0404 C   0  0  0  0  0  0
   43.1415    9.4743   17.4828 C   0  0  0  0  0  0
   41.8511    8.9290   17.3736 C   0  0  0  0  0  0
   40.8016    9.6943   16.8321 C   0  0  0  0  0  0
   41.0553   11.0192   16.4161 C   0  0  0  0  0  0
   39.5453    9.0912   16.6788 N   0  0  0  0  0  0
   38.8634    9.2927   15.4048 C   0  0  0  0  0  0
   38.7133    8.0355   14.5692 C   0  0  0  0  0  0
   37.4416    7.6495   14.0950 C   0  0  0  0  0  0
   37.3036    6.4985   13.2941 C   0  0  0  0  0  0
   38.4384    5.7361   12.9537 C   0  0  0  0  0  0
   39.7101    6.1217   13.4199 C   0  0  0  0  0  0
   39.8467    7.2676   14.2271 C   0  0  0  0  0  0
   41.2151   17.2062   14.8544 H   0  0  0  0  0  0
   40.1898   15.8857   14.3160 H   0  0  0  0  0  0
   44.3827   11.1894   17.1085 H   0  0  0  0  0  0
   43.9468    8.8831   17.8932 H   0  0  0  0  0  0
   41.6752    7.9135   17.6983 H   0  0  0  0  0  0
   40.2428   11.6173   16.0334 H   0  0  0  0  0  0
   39.4740    8.1435   17.0209 H   0  0  0  0  0  0
   37.8790    9.7109   15.6119 H   0  0  0  0  0  0
   39.3838   10.0136   14.7764 H   0  0  0  0  0  0
   36.5685    8.2347   14.3429 H   0  0  0  0  0  0
   36.3284    6.2006   12.9387 H   0  0  0  0  0  0
   38.3344    4.8544   12.3386 H   0  0  0  0  0  0
   40.5816    5.5354   13.1646 H   0  0  0  0  0  0
   40.8263    7.5569   14.5785 H   0  0  0  0  0  0
  1  2  2  0  0  0
  2  3  1  0  0  0
  2  4  1  0  0  0
  4  5  1  0  0  0
  4 29  1  0  0  0
  4 30  1  0  0  0
  5  6  1  0  0  0
  6 11  2  0  0  0
  6  7  1  0  0  0
  7  8  1  0  0  0
  7  9  2  0  0  0
  9 10  1  0  0  0
  9 15  1  0  0  0
 10 11  1  0  0  0
 11 12  1  0  0  0
 12 13  2  0  0  0
 12 14  1  0  0  0
 15 20  1  0  0  0
 15 16  2  0  0  0
 16 17  1  0  0  0
 16 31  1  0  0  0
 17 18  2  0  0  0
 17 32  1  0  0  0
 18 19  1  0  0  0
 18 33  1  0  0  0
 19 20  2  0  0  0
 19 21  1  0  0  0
 20 34  1  0  0  0
 21 22  1  0  0  0
 21 35  1  0  0  0
 22 23  1  0  0  0
 22 36  1  0  0  0
 22 37  1  0  0  0
 23 28  1  0  0  0
 23 24  2  0  0  0
 24 25  1  0  0  0
 24 38  1  0  0  0
 25 26  2  0  0  0
 25 39  1  0  0  0
 26 27  1  0  0  0
 26 40  1  0  0  0
 27 28  2  0  0  0
 27 41  1  0  0  0
 28 42  1  0  0  0
M  CHG  2   3  -1  14  -1
M  END
> <s_m_entry_id>
489

> <i_f3d_flags>
0

> <r_epik_Ionization_Penalty>
  0.0002

> <r_epik_State_Penalty>
  0.0000

> <i_epik_Tot_Q>
-2

> <s_m_job_name>
glide-dock_SP_ptp1b_core_cons

> <r_lp_tautomer_probability>
1

> <r_i_docking_score>
-7.37051631076838

> <r_i_glide_gscore>
-7.37051631076838

> <r_i_glide_emodel>
-97.8952361387332

$$$$
lig_23485
                    3D
 Schrodinger Suite 2021-4.
 63 66  0  0  1  0            999 V2000
   41.4512   17.4863   11.8040 O   0  0  0  0  0  0
   40.5838   17.2268   12.6714 C   0  0  0  0  0  0
   39.3882   17.5970   12.5988 O   0  5  0  0  0  0
   40.9922   16.4247   13.9176 C   0  0  0  0  0  0
   42.2055   15.7018   13.7173 O   0  0  0  0  0  0
   42.5509   14.8929   14.7496 C   0  0  0  0  0  0
   42.1620   13.5395   14.8420 C   0  0  0  0  0  0
   41.3520   12.8683   13.7683 C   0  0  0  0  0  0
   43.3350   15.2866   15.7828 C   0  0  0  0  0  0
   43.9323   16.5750   16.0927 C   0  0  0  0  0  0
   44.5838   16.6863   17.1510 O   0  0  0  0  0  0
   43.7864   17.5273   15.2942 O   0  5  0  0  0  0
   43.6334   13.9842   16.9032 S   0  0  0  0  0  0
   42.6196   12.9160   15.9721 C   0  0  0  0  0  0
   42.3443   11.5671   16.4591 C   0  0  0  0  0  0
   41.0365   11.0317   16.3985 C   0  0  0  0  0  0
   40.7835    9.7184   16.8322 C   0  0  0  0  0  0
   41.8304    8.9394   17.3610 C   0  0  0  0  0  0
   43.1264    9.4773   17.4901 C   0  0  0  0  0  0
   43.3771   10.7767   17.0060 C   0  0  0  0  0  0
   44.1833    8.7852   18.0944 N   0  0  0  0  0  0
   43.9329    8.0899   19.3483 C   0  0  0  0  0  0
   45.1643    7.2597   19.7110 C   0  0  0  0  0  0
   44.9685    6.4943   21.0285 C   0  0  0  0  0  0
   44.5151    7.3726   22.1244 N   0  0  3  0  0  0
   43.4082    8.2990   21.8190 C   0  0  0  0  0  0
   43.6539    9.0631   20.5071 C   0  0  0  0  0  0
   45.4226    7.5196   23.5949 S   0  0  0  0  0  0
   44.4790    7.9243   24.6473 O   0  0  0  0  0  0
   46.2107    6.2894   23.7617 O   0  0  0  0  0  0
   46.5506    8.9523   23.2853 C   0  0  0  0  0  0
   47.5566    8.7345   22.1622 C   0  0  0  0  0  0
   48.4617    7.6502   22.1803 C   0  0  0  0  0  0
   49.4083    7.4953   21.1486 C   0  0  0  0  0  0
   49.4721    8.4363   20.1036 C   0  0  0  0  0  0
   48.5895    9.5323   20.0945 C   0  0  0  0  0  0
   47.6314    9.6788   21.1148 C   0  0  0  0  0  0
   41.1012   17.1124   14.7591 H   0  0  0  0  0  0
   40.1889   15.7312   14.1697 H   0  0  0  0  0  0
   40.3081   12.7503   14.0614 H   0  0  0  0  0  0
   41.3554   13.4419   12.8420 H   0  0  0  0  0  0
   41.7622   11.8855   13.5360 H   0  0  0  0  0  0
   40.2192   11.6225   16.0111 H   0  0  0  0  0  0
   39.7867    9.3097   16.7629 H   0  0  0  0  0  0
   41.6143    7.9361   17.6977 H   0  0  0  0  0  0
   44.3702   11.1922   17.0728 H   0  0  0  0  0  0
   45.0585    9.2863   18.0771 H   0  0  0  0  0  0
   43.0849    7.4153   19.2359 H   0  0  0  0  0  0
   45.3732    6.5665   18.8992 H   0  0  0  0  0  0
   46.0380    7.9023   19.7899 H   0  0  0  0  0  0
   44.2180    5.7195   20.8938 H   0  0  0  0  0  0
   45.8932    5.9891   21.3011 H   0  0  0  0  0  0
   42.4893    7.7179   21.7419 H   0  0  0  0  0  0
   43.2664    9.0000   22.6426 H   0  0  0  0  0  0
   44.4936    9.7472   20.6357 H   0  0  0  0  0  0
   42.7823    9.6802   20.2830 H   0  0  0  0  0  0
   45.9231    9.8199   23.0836 H   0  0  0  0  0  0
   47.0859    9.1543   24.2120 H   0  0  0  0  0  0
   48.4531    6.9371   22.9893 H   0  0  0  0  0  0
   50.0995    6.6662   21.1704 H   0  0  0  0  0  0
   50.2090    8.3342   19.3182 H   0  0  0  0  0  0
   48.6536   10.2653   19.3027 H   0  0  0  0  0  0
   46.9630   10.5270   21.0937 H   0  0  0  0  0  0
  1  2  2  0  0  0
  2  3  1  0  0  0
  2  4  1  0  0  0
  4  5  1  0  0  0
  4 38  1  0  0  0
  4 39  1  0  0  0
  5  6  1  0  0  0
  6  7  1  0  0  0
  6  9  2  0  0  0
  7 14  2  0  0  0
  7  8  1  0  0  0
  8 40  1  0  0  0
  8 41  1  0  0  0
  8 42  1  0  0  0
  9 10  1  0  0  0
  9 13  1  0  0  0
 10 11  2  0  0  0
 10 12  1  0  0  0
 13 14  1  0  0  0
 14 15  1  0  0  0
 15 20  1  0  0  0
 15 16  2  0  0  0
 16 17  1  0  0  0
 16 43  1  0  0  0
 17 18  2  0  0  0
 17 44  1  0  0  0
 18 19  1  0  0  0
 18 45  1  0  0  0
 19 20  2  0  0  0
 19 21  1  0  0  0
 20 46  1  0  0  0
 21 22  1  0  0  0
 21 47  1  0  0  0
 22 27  1  0  0  0
 22 23  1  0  0  0
 22 48  1  0  0  0
 23 24  1  0  0  0
 23 49  1  0  0  0
 23 50  1  0  0  0
 24 25  1  0  0  0
 24 51  1  0  0  0
 24 52  1  0  0  0
 25 26  1  0  0  0
 25 28  1  0  0  0
 26 27  1  0  0  0
 26 53  1  0  0  0
 26 54  1  0  0  0
 27 55  1  0  0  0
 27 56  1  0  0  0
 28 29  2  0  0  0
 28 30  2  0  0  0
 28 31  1  0  0  0
 31 32  1  0  0  0
 31 57  1  0  0  0
 31 58  1  0  0  0
 32 37  1  0  0  0
 32 33  2  0  0  0
 33 34  1  0  0  0
 33 59  1  0  0  0
 34 35  2  0  0  0
 34 60  1  0  0  0
 35 36  1  0  0  0
 35 61  1  0  0  0
 36 37  2  0  0  0
 36 62  1  0  0  0
 37 63  1  0  0  0
M  CHG  2   3  -1  12  -1
M  END
> <s_m_entry_id>
490

> <i_f3d_flags>
0

> <r_epik_Ionization_Penalty>
  0.0005

> <r_epik_State_Penalty>
  0.0002

> <i_epik_Tot_Q>
-2

> <s_m_job_name>
glide-dock_SP_ptp1b_core_cons

> <r_i_docking_score>
-6.64870039514426

> <r_i_glide_gscore>
-6.64890039514426

> <r_i_glide_emodel>
-92.8519758561854

$$$$
lig_23474
                    3D
 Schrodinger Suite 2021-4.
 48 50  0  0  1  0            999 V2000
   39.4738   17.8861   12.7373 O   0  0  0  0  0  0
   40.5881   17.3140   12.6920 C   0  0  0  0  0  0
   41.4310   17.4862   11.7784 O   0  5  0  0  0  0
   40.9112   16.3409   13.8375 C   0  0  0  0  0  0
   42.1792   15.7114   13.6711 O   0  0  0  0  0  0
   42.5357   14.9154   14.7083 C   0  0  0  0  0  0
   42.1432   13.5658   14.8872 C   0  0  0  0  0  0
   40.9828   12.7084   13.6923 Br  0  0  0  0  0  0
   42.6064   12.9287   16.0016 C   0  0  0  0  0  0
   43.6199   14.0062   16.8971 S   0  0  0  0  0  0
   43.3253   15.3077   15.7517 C   0  0  0  0  0  0
   43.9279   16.5910   16.0761 C   0  0  0  0  0  0
   44.5828   16.6862   17.1319 O   0  0  0  0  0  0
   43.7838   17.5529   15.2921 O   0  5  0  0  0  0
   42.3498   11.5749   16.4842 C   0  0  0  0  0  0
   43.3960   10.7846   16.9938 C   0  0  0  0  0  0
   43.1564    9.4705   17.4297 C   0  0  0  0  0  0
   41.8638    8.9210   17.3452 C   0  0  0  0  0  0
   40.7967    9.6958   16.8317 C   0  0  0  0  0  0
   41.0538   11.0196   16.4270 C   0  0  0  0  0  0
   39.4728    9.2399   16.7273 N   0  0  0  0  0  0
   39.1565    7.8176   16.7071 C   0  0  0  0  0  0
   38.9998    7.2671   15.2781 C   0  0  0  0  0  0
   40.2570    7.4926   14.4083 C   0  0  0  0  0  0
   40.1008    6.8766   13.0122 C   0  0  0  0  0  0
   39.7491    5.3868   13.0903 C   0  0  0  0  0  0
   38.4839    5.1642   13.9247 C   0  0  0  0  0  0
   38.6437    5.7674   15.3282 C   0  0  0  0  0  0
   40.8687   16.8835   14.7875 H   0  0  0  0  0  0
   40.1367   15.5713   13.8639 H   0  0  0  0  0  0
   44.3955   11.1860   17.0429 H   0  0  0  0  0  0
   43.9702    8.8809   17.8226 H   0  0  0  0  0  0
   41.7243    7.9094   17.6916 H   0  0  0  0  0  0
   40.2337   11.6207   16.0646 H   0  0  0  0  0  0
   38.8700    9.8155   16.1575 H   0  0  0  0  0  0
   39.8732    7.2185   17.2618 H   0  0  0  0  0  0
   38.2126    7.6961   17.2387 H   0  0  0  0  0  0
   38.1677    7.7918   14.8075 H   0  0  0  0  0  0
   40.4472    8.5593   14.2912 H   0  0  0  0  0  0
   41.1360    7.0846   14.9067 H   0  0  0  0  0  0
   39.3091    7.4125   12.4939 H   0  0  0  0  0  0
   41.0108    7.0141   12.4289 H   0  0  0  0  0  0
   39.6076    4.9792   12.0921 H   0  0  0  0  0  0
   40.5790    4.8350   13.5302 H   0  0  0  0  0  0
   37.6281    5.6183   13.4248 H   0  0  0  0  0  0
   38.2738    4.0966   13.9929 H   0  0  0  0  0  0
   39.4228    5.2254   15.8669 H   0  0  0  0  0  0
   37.7190    5.6257   15.8898 H   0  0  0  0  0  0
  1  2  2  0  0  0
  2  3  1  0  0  0
  2  4  1  0  0  0
  4  5  1  0  0  0
  4 29  1  0  0  0
  4 30  1  0  0  0
  5  6  1  0  0  0
  6 11  2  0  0  0
  6  7  1  0  0  0
  7  8  1  0  0  0
  7  9  2  0  0  0
  9 10  1  0  0  0
  9 15  1  0  0  0
 10 11  1  0  0  0
 11 12  1  0  0  0
 12 13  2  0  0  0
 12 14  1  0  0  0
 15 20  1  0  0  0
 15 16  2  0  0  0
 16 17  1  0  0  0
 16 31  1  0  0  0
 17 18  2  0  0  0
 17 32  1  0  0  0
 18 19  1  0  0  0
 18 33  1  0  0  0
 19 20  2  0  0  0
 19 21  1  0  0  0
 20 34  1  0  0  0
 21 22  1  0  0  0
 21 35  1  0  0  0
 22 23  1  0  0  0
 22 36  1  0  0  0
 22 37  1  0  0  0
 23 28  1  0  0  0
 23 24  1  0  0  0
 23 38  1  0  0  0
 24 25  1  0  0  0
 24 39  1  0  0  0
 24 40  1  0  0  0
 25 26  1  0  0  0
 25 41  1  0  0  0
 25 42  1  0  0  0
 26 27  1  0  0  0
 26 43  1  0  0  0
 26 44  1  0  0  0
 27 28  1  0  0  0
 27 45  1  0  0  0
 27 46  1  0  0  0
 28 47  1  0  0  0
 28 48  1  0  0  0
M  CHG  2   3  -1  14  -1
M  END
> <s_m_entry_id>
491

> <i_f3d_flags>
0

> <r_epik_Ionization_Penalty>
  0.0033

> <r_epik_State_Penalty>
  0.0023

> <i_epik_Tot_Q>
-2

> <s_m_job_name>
glide-dock_SP_ptp1b_core_cons

> <r_i_docking_score>
-7.19997538339451

> <r_i_glide_gscore>
-7.20227538339451

> <r_i_glide_emodel>
-94.2822860057291

$$$$
lig_20667_2qbp
                    3D
 Schrodinger Suite 2021-4.
 60 63  0  0  1  0            999 V2000
   39.3566   17.4902   12.4946 O   0  0  0  0  0  0
   40.5589   17.1529   12.5991 C   0  0  0  0  0  0
   41.4573   17.4787   11.7855 O   0  5  0  0  0  0
   40.9239   16.2924   13.8176 C   0  0  0  0  0  0
   42.2045   15.6926   13.6821 O   0  0  0  0  0  0
   42.5400   14.9043   14.7285 C   0  0  0  0  0  0
   42.1496   13.5536   14.8942 C   0  0  0  0  0  0
   40.9839   12.7054   13.6804 Br  0  0  0  0  0  0
   42.5995   12.9254   16.0226 C   0  0  0  0  0  0
   43.5986   14.0073   16.9340 S   0  0  0  0  0  0
   43.3288   15.2921   15.7750 C   0  0  0  0  0  0
   43.9342   16.5789   16.0897 C   0  0  0  0  0  0
   44.5837   16.6863   17.1487 O   0  0  0  0  0  0
   43.7965   17.5335   15.2940 O   0  5  0  0  0  0
   42.3441   11.5794   16.5210 C   0  0  0  0  0  0
   43.3838   10.8030   17.0668 C   0  0  0  0  0  0
   43.1447    9.4869   17.5017 C   0  0  0  0  0  0
   41.8630    8.9240   17.3683 C   0  0  0  0  0  0
   40.8084    9.6752   16.8102 C   0  0  0  0  0  0
   41.0570   11.0139   16.4313 C   0  0  0  0  0  0
   39.5285    9.1503   16.5681 N   0  0  0  0  0  0
   39.3807    7.7259   16.2762 C   0  0  0  0  0  0
   37.8982    7.3118   16.3090 C   0  0  0  0  0  0
   37.7387    5.8129   15.9953 C   0  0  0  0  0  0
   38.3580    5.4870   14.6986 N   0  0  2  0  0  0
   39.7826    5.8681   14.5985 C   0  0  0  0  0  0
   39.9661    7.3652   14.8976 C   0  0  0  0  0  0
   37.3588    5.4974   13.2766 S   0  0  0  0  0  0
   36.3519    6.5603   13.4412 O   0  0  0  0  0  0
   38.2349    5.4881   12.0943 O   0  0  0  0  0  0
   36.5112    3.8614   13.3983 C   0  0  0  0  0  0
   36.9026    2.9673   12.2365 C   0  0  0  0  0  0
   38.1019    2.2243   12.2914 C   0  0  0  0  0  0
   38.4650    1.3826   11.2230 C   0  0  0  0  0  0
   37.6299    1.2797   10.0947 C   0  0  0  0  0  0
   36.4307    2.0147   10.0400 C   0  0  0  0  0  0
   36.0679    2.8621   11.1046 C   0  0  0  0  0  0
   40.8941   16.9174   14.7110 H   0  0  0  0  0  0
   40.1828   15.5014   13.9354 H   0  0  0  0  0  0
   44.3776   11.2155   17.1292 H   0  0  0  0  0  0
   43.9507    8.8995   17.9186 H   0  0  0  0  0  0
   41.7131    7.9080   17.6989 H   0  0  0  0  0  0
   40.2434   11.5975   16.0309 H   0  0  0  0  0  0
   38.9487    9.7479   15.9964 H   0  0  0  0  0  0
   39.8898    7.1433   17.0424 H   0  0  0  0  0  0
   37.4755    7.5248   17.2899 H   0  0  0  0  0  0
   37.3258    7.8974   15.5874 H   0  0  0  0  0  0
   38.2238    5.2193   16.7705 H   0  0  0  0  0  0
   36.6862    5.5263   15.9902 H   0  0  0  0  0  0
   40.3532    5.2829   15.3207 H   0  0  0  0  0  0
   40.1869    5.6098   13.6189 H   0  0  0  0  0  0
   39.4802    7.9583   14.1239 H   0  0  0  0  0  0
   41.0275    7.6100   14.8591 H   0  0  0  0  0  0
   36.7859    3.3909   14.3446 H   0  0  0  0  0  0
   35.4333    4.0308   13.4129 H   0  0  0  0  0  0
   38.7459    2.3025   13.1550 H   0  0  0  0  0  0
   39.3788    0.8070   11.2676 H   0  0  0  0  0  0
   37.9022    0.6252    9.2819 H   0  0  0  0  0  0
   35.7879    1.9147    9.1781 H   0  0  0  0  0  0
   35.1429    3.4196   11.0550 H   0  0  0  0  0  0
  1  2  2  0  0  0
  2  3  1  0  0  0
  2  4  1  0  0  0
  4  5  1  0  0  0
  4 38  1  0  0  0
  4 39  1  0  0  0
  5  6  1  0  0  0
  6 11  2  0  0  0
  6  7  1  0  0  0
  7  8  1  0  0  0
  7  9  2  0  0  0
  9 10  1  0  0  0
  9 15  1  0  0  0
 10 11  1  0  0  0
 11 12  1  0  0  0
 12 13  2  0  0  0
 12 14  1  0  0  0
 15 20  1  0  0  0
 15 16  2  0  0  0
 16 17  1  0  0  0
 16 40  1  0  0  0
 17 18  2  0  0  0
 17 41  1  0  0  0
 18 19  1  0  0  0
 18 42  1  0  0  0
 19 20  2  0  0  0
 19 21  1  0  0  0
 20 43  1  0  0  0
 21 22  1  0  0  0
 21 44  1  0  0  0
 22 27  1  0  0  0
 22 23  1  0  0  0
 22 45  1  0  0  0
 23 24  1  0  0  0
 23 46  1  0  0  0
 23 47  1  0  0  0
 24 25  1  0  0  0
 24 48  1  0  0  0
 24 49  1  0  0  0
 25 26  1  0  0  0
 25 28  1  0  0  0
 26 27  1  0  0  0
 26 50  1  0  0  0
 26 51  1  0  0  0
 27 52  1  0  0  0
 27 53  1  0  0  0
 28 29  2  0  0  0
 28 30  2  0  0  0
 28 31  1  0  0  0
 31 32  1  0  0  0
 31 54  1  0  0  0
 31 55  1  0  0  0
 32 37  1  0  0  0
 32 33  2  0  0  0
 33 34  1  0  0  0
 33 56  1  0  0  0
 34 35  2  0  0  0
 34 57  1  0  0  0
 35 36  1  0  0  0
 35 58  1  0  0  0
 36 37  2  0  0  0
 36 59  1  0  0  0
 37 60  1  0  0  0
M  CHG  2   3  -1  14  -1
M  END
> <s_m_entry_id>
492

> <i_f3d_flags>
0

> <r_epik_Ionization_Penalty>
  0.0004

> <r_epik_State_Penalty>
  0.0002

> <i_epik_Tot_Q>
-2

> <s_m_job_name>
glide-dock_SP_ptp1b_core_cons

> <r_i_docking_score>
-7.60621947464391

> <r_i_glide_gscore>
-7.60641947464391

> <r_i_glide_emodel>
-110.506990474701

$$$$
lig_23468
                    3D
 Schrodinger Suite 2021-4.
 37 38  0  0  1  0            999 V2000
   39.3976   17.6990   12.6543 O   0  0  0  0  0  0
   40.5785   17.2800   12.6828 C   0  0  0  0  0  0
   41.4182   17.4841   11.7735 O   0  5  0  0  0  0
   41.0046   16.4856   13.9265 C   0  0  0  0  0  0
   42.1734   15.7070   13.6830 O   0  0  0  0  0  0
   42.5435   14.9169   14.7203 C   0  0  0  0  0  0
   42.1494   13.5683   14.8905 C   0  0  0  0  0  0
   40.9835   12.7632   13.6555 Br  0  0  0  0  0  0
   42.6182   12.9238   16.0026 C   0  0  0  0  0  0
   43.6537   14.0029   16.8875 S   0  0  0  0  0  0
   43.3490   15.3039   15.7549 C   0  0  0  0  0  0
   43.9545   16.5839   16.0827 C   0  0  0  0  0  0
   43.8281   17.5439   15.2935 O   0  0  0  0  0  0
   44.5843   16.6843   17.1532 O   0  5  0  0  0  0
   42.3570   11.5699   16.4901 C   0  0  0  0  0  0
   43.3812   10.7863   17.0615 C   0  0  0  0  0  0
   43.1217    9.4702   17.4919 C   0  0  0  0  0  0
   41.8380    8.9116   17.3361 C   0  0  0  0  0  0
   40.8012    9.6825   16.7627 C   0  0  0  0  0  0
   41.0683   11.0056   16.3685 C   0  0  0  0  0  0
   39.4993    9.1864   16.4875 N   0  0  0  0  0  0
   38.8411    8.1728   17.0756 C   0  0  0  0  0  0
   39.2648    7.5305   18.0353 O   0  0  0  0  0  0
   37.4515    7.8699   16.5046 C   0  0  0  0  0  0
   37.1153    6.3708   16.5049 C   0  0  0  0  0  0
   40.1821   15.8374   14.2309 H   0  0  0  0  0  0
   41.1786   17.1880   14.7425 H   0  0  0  0  0  0
   44.3754   11.1911   17.1611 H   0  0  0  0  0  0
   43.9151    8.8808   17.9260 H   0  0  0  0  0  0
   41.6753    7.8884   17.6411 H   0  0  0  0  0  0
   40.2623   11.5906   15.9527 H   0  0  0  0  0  0
   38.9952    9.6809   15.7651 H   0  0  0  0  0  0
   37.3838    8.2512   15.4842 H   0  0  0  0  0  0
   36.7128    8.4138   17.0942 H   0  0  0  0  0  0
   36.1349    6.1958   16.0618 H   0  0  0  0  0  0
   37.0982    5.9632   17.5167 H   0  0  0  0  0  0
   37.8447    5.8007   15.9280 H   0  0  0  0  0  0
  1  2  2  0  0  0
  2  3  1  0  0  0
  2  4  1  0  0  0
  4  5  1  0  0  0
  4 26  1  0  0  0
  4 27  1  0  0  0
  5  6  1  0  0  0
  6 11  2  0  0  0
  6  7  1  0  0  0
  7  8  1  0  0  0
  7  9  2  0  0  0
  9 10  1  0  0  0
  9 15  1  0  0  0
 10 11  1  0  0  0
 11 12  1  0  0  0
 12 13  2  0  0  0
 12 14  1  0  0  0
 15 20  1  0  0  0
 15 16  2  0  0  0
 16 17  1  0  0  0
 16 28  1  0  0  0
 17 18  2  0  0  0
 17 29  1  0  0  0
 18 19  1  0  0  0
 18 30  1  0  0  0
 19 20  2  0  0  0
 19 21  1  0  0  0
 20 31  1  0  0  0
 21 22  1  0  0  0
 21 32  1  0  0  0
 22 23  2  0  0  0
 22 24  1  0  0  0
 24 25  1  0  0  0
 24 33  1  0  0  0
 24 34  1  0  0  0
 25 35  1  0  0  0
 25 36  1  0  0  0
 25 37  1  0  0  0
M  CHG  2   3  -1  14  -1
M  END
> <s_m_entry_id>
493

> <i_f3d_flags>
0

> <r_epik_Ionization_Penalty>
  0.0001

> <r_epik_State_Penalty>
  0.0000

> <i_epik_Tot_Q>
-2

> <s_m_job_name>
glide-dock_SP_ptp1b_core_cons

> <r_lp_tautomer_probability>
1

> <r_i_docking_score>
-6.90389820084715

> <r_i_glide_gscore>
-6.90389820084715

> <r_i_glide_emodel>
-87.2958054914979

$$$$
lig_23484
                    3D
 Schrodinger Suite 2021-4.
 60 63  0  0  1  0            999 V2000
   41.4021   17.4862   11.8013 O   0  0  0  0  0  0
   40.5838   17.3103   12.7348 C   0  0  0  0  0  0
   39.4748   17.8863   12.8116 O   0  5  0  0  0  0
   40.9286   16.3307   13.8676 C   0  0  0  0  0  0
   42.1914   15.7003   13.6847 O   0  0  0  0  0  0
   42.5451   14.8968   14.7167 C   0  0  0  0  0  0
   42.1537   13.5402   14.8529 C   0  0  0  0  0  0
   42.6202   12.9184   15.9804 C   0  0  0  0  0  0
   43.6088   13.9914   16.9143 S   0  0  0  0  0  0
   43.3326   15.2877   15.7654 C   0  0  0  0  0  0
   43.9323   16.5777   16.0832 C   0  0  0  0  0  0
   44.5833   16.6861   17.1414 O   0  0  0  0  0  0
   43.7886   17.5369   15.2926 O   0  5  0  0  0  0
   42.3601   11.5693   16.4634 C   0  0  0  0  0  0
   43.3780   10.7865   17.0473 C   0  0  0  0  0  0
   43.1051    9.4813   17.4991 C   0  0  0  0  0  0
   41.8104    8.9438   17.3626 C   0  0  0  0  0  0
   40.7805    9.7171   16.7801 C   0  0  0  0  0  0
   41.0670   11.0234   16.3423 C   0  0  0  0  0  0
   39.4711    9.2496   16.6052 N   0  0  0  0  0  0
   38.9155    8.1663   17.4071 C   0  0  0  0  0  0
   38.8732    8.5129   18.9102 C   0  0  0  0  0  0
   38.2408    7.3670   19.7133 C   0  0  0  0  0  0
   36.8796    7.0940   19.2201 N   0  0  2  0  0  0
   36.8331    6.7441   17.7884 C   0  0  0  0  0  0
   37.4868    7.8452   16.9351 C   0  0  0  0  0  0
   35.5225    7.9052   19.9439 S   0  0  0  0  0  0
   35.9969    8.5749   21.1633 O   0  0  0  0  0  0
   34.8422    8.6814   18.8939 O   0  0  0  0  0  0
   34.4610    6.4894   20.4714 C   0  0  0  0  0  0
   33.5130    6.0551   19.3679 C   0  0  0  0  0  0
   33.8711    5.0045   18.4954 C   0  0  0  0  0  0
   32.9959    4.6071   17.4656 C   0  0  0  0  0  0
   31.7515    5.2485   17.3150 C   0  0  0  0  0  0
   31.3824    6.2835   18.1971 C   0  0  0  0  0  0
   32.2595    6.6864   19.2222 C   0  0  0  0  0  0
   40.9076   16.8733   14.8149 H   0  0  0  0  0  0
   40.1598   15.5596   13.9119 H   0  0  0  0  0  0
   41.5194   13.0655   14.1189 H   0  0  0  0  0  0
   44.3739   11.1869   17.1443 H   0  0  0  0  0  0
   43.8901    8.8883   17.9446 H   0  0  0  0  0  0
   41.6244    7.9368   17.7048 H   0  0  0  0  0  0
   40.2826   11.6184   15.8960 H   0  0  0  0  0  0
   38.8504    9.7697   16.0009 H   0  0  0  0  0  0
   39.5298    7.2772   17.2580 H   0  0  0  0  0  0
   39.8737    8.7037   19.2970 H   0  0  0  0  0  0
   38.3043    9.4298   19.0689 H   0  0  0  0  0  0
   38.8437    6.4643   19.6060 H   0  0  0  0  0  0
   38.2282    7.5960   20.7780 H   0  0  0  0  0  0
   37.3522    5.7975   17.6382 H   0  0  0  0  0  0
   35.8032    6.5941   17.4702 H   0  0  0  0  0  0
   36.8723    8.7450   16.9801 H   0  0  0  0  0  0
   37.5003    7.5352   15.8899 H   0  0  0  0  0  0
   35.1042    5.6728   20.8007 H   0  0  0  0  0  0
   33.8829    6.8169   21.3354 H   0  0  0  0  0  0
   34.8222    4.5046   18.6080 H   0  0  0  0  0  0
   33.2751    3.8057   16.7963 H   0  0  0  0  0  0
   31.0750    4.9416   16.5305 H   0  0  0  0  0  0
   30.4209    6.7660   18.0900 H   0  0  0  0  0  0
   31.9673    7.4841   19.8911 H   0  0  0  0  0  0
  1  2  2  0  0  0
  2  3  1  0  0  0
  2  4  1  0  0  0
  4  5  1  0  0  0
  4 37  1  0  0  0
  4 38  1  0  0  0
  5  6  1  0  0  0
  6 10  2  0  0  0
  6  7  1  0  0  0
  7  8  2  0  0  0
  7 39  1  0  0  0
  8  9  1  0  0  0
  8 14  1  0  0  0
  9 10  1  0  0  0
 10 11  1  0  0  0
 11 12  2  0  0  0
 11 13  1  0  0  0
 14 19  1  0  0  0
 14 15  2  0  0  0
 15 16  1  0  0  0
 15 40  1  0  0  0
 16 17  2  0  0  0
 16 41  1  0  0  0
 17 18  1  0  0  0
 17 42  1  0  0  0
 18 19  2  0  0  0
 18 20  1  0  0  0
 19 43  1  0  0  0
 20 21  1  0  0  0
 20 44  1  0  0  0
 21 26  1  0  0  0
 21 22  1  0  0  0
 21 45  1  0  0  0
 22 23  1  0  0  0
 22 46  1  0  0  0
 22 47  1  0  0  0
 23 24  1  0  0  0
 23 48  1  0  0  0
 23 49  1  0  0  0
 24 25  1  0  0  0
 24 27  1  0  0  0
 25 26  1  0  0  0
 25 50  1  0  0  0
 25 51  1  0  0  0
 26 52  1  0  0  0
 26 53  1  0  0  0
 27 28  2  0  0  0
 27 29  2  0  0  0
 27 30  1  0  0  0
 30 31  1  0  0  0
 30 54  1  0  0  0
 30 55  1  0  0  0
 31 36  1  0  0  0
 31 32  2  0  0  0
 32 33  1  0  0  0
 32 56  1  0  0  0
 33 34  2  0  0  0
 33 57  1  0  0  0
 34 35  1  0  0  0
 34 58  1  0  0  0
 35 36  2  0  0  0
 35 59  1  0  0  0
 36 60  1  0  0  0
M  CHG  2   3  -1  13  -1
M  END
> <s_m_entry_id>
494

> <i_f3d_flags>
0

> <r_epik_Ionization_Penalty>
  0.0005

> <r_epik_State_Penalty>
  0.0002

> <i_epik_Tot_Q>
-2

> <s_m_job_name>
glide-dock_SP_ptp1b_core_cons

> <r_i_docking_score>
-7.06706556311629

> <r_i_glide_gscore>
-7.06726556311629

> <r_i_glide_emodel>
-96.5830427699596

$$$$
lig_20670_2qbs
                    3D
 Schrodinger Suite 2021-4.
 45 47  0  0  1  0            999 V2000
   41.3918   17.4863   11.8287 O   0  0  0  0  0  0
   40.5980   17.3565   12.7914 C   0  0  0  0  0  0
   39.4638   17.8861   12.8441 O   0  5  0  0  0  0
   41.0237   16.5142   14.0023 C   0  0  0  0  0  0
   42.1859   15.7352   13.7279 O   0  0  0  0  0  0
   42.5585   14.9246   14.7473 C   0  0  0  0  0  0
   42.1491   13.5765   14.8980 C   0  0  0  0  0  0
   40.9838   12.7784   13.6602 Br  0  0  0  0  0  0
   42.6093   12.9213   16.0069 C   0  0  0  0  0  0
   43.6409   13.9804   16.9151 S   0  0  0  0  0  0
   43.3732   15.2898   15.7851 C   0  0  0  0  0  0
   44.0109   16.5561   16.1129 C   0  0  0  0  0  0
   44.5839   16.6861   17.2135 O   0  0  0  0  0  0
   43.9626   17.4934   15.2938 O   0  5  0  0  0  0
   42.3522   11.5670   16.4867 C   0  0  0  0  0  0
   43.3992   10.7825   17.0106 C   0  0  0  0  0  0
   43.1648    9.4678   17.4499 C   0  0  0  0  0  0
   41.8742    8.9188   17.3547 C   0  0  0  0  0  0
   40.8139    9.6792   16.8186 C   0  0  0  0  0  0
   41.0587   11.0056   16.4154 C   0  0  0  0  0  0
   39.5195    9.1740   16.6294 N   0  0  0  0  0  0
   39.3240    7.7583   16.3262 C   0  0  0  0  0  0
   37.8186    7.4228   16.3025 C   0  0  0  0  0  0
   37.0920    8.0588   15.1001 C   0  0  0  0  0  0
   37.7568    7.6619   13.7721 C   0  0  0  0  0  0
   39.2551    8.0016   13.7795 C   0  0  0  0  0  0
   39.9694    7.3551   14.9801 C   0  0  0  0  0  0
   41.2080   17.1846   14.8438 H   0  0  0  0  0  0
   40.1944   15.8639   14.2846 H   0  0  0  0  0  0
   44.3969   11.1874   17.0663 H   0  0  0  0  0  0
   43.9755    8.8773   17.8505 H   0  0  0  0  0  0
   41.7184    7.9037   17.6872 H   0  0  0  0  0  0
   40.2421   11.5939   16.0243 H   0  0  0  0  0  0
   38.9122    9.7874   16.1088 H   0  0  0  0  0  0
   39.7747    7.1715   17.1264 H   0  0  0  0  0  0
   37.6972    6.3398   16.2575 H   0  0  0  0  0  0
   37.3475    7.7379   17.2344 H   0  0  0  0  0  0
   36.0450    7.7544   15.0943 H   0  0  0  0  0  0
   37.0937    9.1452   15.1956 H   0  0  0  0  0  0
   37.6265    6.5922   13.6039 H   0  0  0  0  0  0
   37.2639    8.1686   12.9417 H   0  0  0  0  0  0
   39.7181    7.6671   12.8509 H   0  0  0  0  0  0
   39.3808    9.0842   13.8156 H   0  0  0  0  0  0
   41.0292    7.6069   14.9629 H   0  0  0  0  0  0
   39.9277    6.2699   14.8763 H   0  0  0  0  0  0
  1  2  2  0  0  0
  2  3  1  0  0  0
  2  4  1  0  0  0
  4  5  1  0  0  0
  4 28  1  0  0  0
  4 29  1  0  0  0
  5  6  1  0  0  0
  6 11  2  0  0  0
  6  7  1  0  0  0
  7  8  1  0  0  0
  7  9  2  0  0  0
  9 10  1  0  0  0
  9 15  1  0  0  0
 10 11  1  0  0  0
 11 12  1  0  0  0
 12 13  2  0  0  0
 12 14  1  0  0  0
 15 20  1  0  0  0
 15 16  2  0  0  0
 16 17  1  0  0  0
 16 30  1  0  0  0
 17 18  2  0  0  0
 17 31  1  0  0  0
 18 19  1  0  0  0
 18 32  1  0  0  0
 19 20  2  0  0  0
 19 21  1  0  0  0
 20 33  1  0  0  0
 21 22  1  0  0  0
 21 34  1  0  0  0
 22 27  1  0  0  0
 22 23  1  0  0  0
 22 35  1  0  0  0
 23 24  1  0  0  0
 23 36  1  0  0  0
 23 37  1  0  0  0
 24 25  1  0  0  0
 24 38  1  0  0  0
 24 39  1  0  0  0
 25 26  1  0  0  0
 25 40  1  0  0  0
 25 41  1  0  0  0
 26 27  1  0  0  0
 26 42  1  0  0  0
 26 43  1  0  0  0
 27 44  1  0  0  0
 27 45  1  0  0  0
M  CHG  2   3  -1  14  -1
M  END
> <s_m_entry_id>
495

> <i_f3d_flags>
0

> <r_epik_Ionization_Penalty>
  0.0027

> <r_epik_State_Penalty>
  0.0018

> <i_epik_Tot_Q>
-2

> <s_m_job_name>
glide-dock_SP_ptp1b_core_cons

> <r_i_docking_score>
-7.29070739406073

> <r_i_glide_gscore>
-7.29250739406073

> <r_i_glide_emodel>
-92.7047637915822

$$$$
lig_23466
                    3D
 Schrodinger Suite 2021-4.
 29 30  0  0  1  0            999 V2000
   41.4626   17.4863   11.7681 O   0  0  0  0  0  0
   40.5850   17.1946   12.6155 C   0  0  0  0  0  0
   39.3732   17.4894   12.5004 O   0  5  0  0  0  0
   41.0039   16.4505   13.8923 C   0  0  0  0  0  0
   42.2050   15.7114   13.6921 O   0  0  0  0  0  0
   42.5592   14.9175   14.7316 C   0  0  0  0  0  0
   42.1820   13.5617   14.8784 C   0  0  0  0  0  0
   40.9838   12.7771   13.6583 Br  0  0  0  0  0  0
   42.6274   12.9090   15.9929 C   0  0  0  0  0  0
   43.6313   13.9815   16.9114 S   0  0  0  0  0  0
   43.3588   15.2921   15.7751 C   0  0  0  0  0  0
   43.9732   16.5700   16.0977 C   0  0  0  0  0  0
   44.5827   16.6863   17.1790 O   0  0  0  0  0  0
   43.8723   17.5199   15.2941 O   0  5  0  0  0  0
   42.3538   11.5571   16.4760 C   0  0  0  0  0  0
   41.0544   11.0061   16.3908 C   0  0  0  0  0  0
   40.7987    9.6908   16.8174 C   0  0  0  0  0  0
   41.8372    8.9185   17.3648 C   0  0  0  0  0  0
   43.1273    9.4638   17.4931 C   0  0  0  0  0  0
   44.1342    8.7082   18.0946 N   0  0  0  0  0  0
   43.3838   10.7717   17.0366 C   0  0  0  0  0  0
   41.1429   17.1797   14.6922 H   0  0  0  0  0  0
   40.1950   15.7838   14.1957 H   0  0  0  0  0  0
   40.2363   11.5885   15.9939 H   0  0  0  0  0  0
   39.8045    9.2778   16.7341 H   0  0  0  0  0  0
   41.6291    7.9143   17.7061 H   0  0  0  0  0  0
   43.8316    7.9299   18.6653 H   0  0  0  0  0  0
   44.9194    9.2147   18.4755 H   0  0  0  0  0  0
   44.3777   11.1825   17.1172 H   0  0  0  0  0  0
  1  2  2  0  0  0
  2  3  1  0  0  0
  2  4  1  0  0  0
  4  5  1  0  0  0
  4 22  1  0  0  0
  4 23  1  0  0  0
  5  6  1  0  0  0
  6 11  2  0  0  0
  6  7  1  0  0  0
  7  8  1  0  0  0
  7  9  2  0  0  0
  9 10  1  0  0  0
  9 15  1  0  0  0
 10 11  1  0  0  0
 11 12  1  0  0  0
 12 13  2  0  0  0
 12 14  1  0  0  0
 15 21  1  0  0  0
 15 16  2  0  0  0
 16 17  1  0  0  0
 16 24  1  0  0  0
 17 18  2  0  0  0
 17 25  1  0  0  0
 18 19  1  0  0  0
 18 26  1  0  0  0
 19 20  1  0  0  0
 19 21  2  0  0  0
 20 27  1  0  0  0
 20 28  1  0  0  0
 21 29  1  0  0  0
M  CHG  2   3  -1  14  -1
M  END
> <s_m_entry_id>
496

> <i_f3d_flags>
0

> <r_epik_Ionization_Penalty>
  0.0006

> <r_epik_State_Penalty>
  0.0003

> <i_epik_Tot_Q>
-2

> <s_m_job_name>
glide-dock_SP_ptp1b_core_cons

> <r_i_docking_score>
-7.18618568463871

> <r_i_glide_gscore>
-7.18648568463871

> <r_i_glide_emodel>
-84.6939734240087

$$$$
