20:0:0
     RDKit          3D

 37 39  0  0  1  0  0  0  0  0999 V2000
  -14.5380  -14.6670  -27.4990 C   0  0  0  0  0  0  0  0  0  0  0  0
  -15.0270  -15.5380  -26.5190 C   0  0  0  0  0  0  0  0  0  0  0  0
  -14.7530  -13.2930  -27.3700 C   0  0  0  0  0  0  0  0  0  0  0  0
  -15.7960  -15.0330  -25.4620 C   0  0  0  0  0  0  0  0  0  0  0  0
  -14.7110  -16.9070  -26.5780 N   0  0  0  0  0  0  0  0  0  0  0  0
  -15.4770  -12.7940  -26.2880 C   0  0  0  0  0  0  0  0  0  0  0  0
  -16.0180  -13.6640  -25.3370 C   0  0  0  0  0  0  0  0  0  0  0  0
  -16.3640  -16.0080  -24.4610 C   0  0  0  0  0  0  0  0  0  0  0  0
  -15.8880  -17.2640  -24.6490 N   0  0  0  0  0  0  0  0  0  0  0  0
  -17.1860  -15.7480  -23.5890 O   0  0  0  0  0  0  0  0  0  0  0  0
  -15.1130  -17.7470  -25.6790 C   0  0  0  0  0  0  0  0  0  0  0  0
  -13.8070  -15.1300  -28.5420 F   0  0  0  0  0  0  0  0  0  0  0  0
  -14.8220  -19.1930  -25.7420 C   0  0  0  0  0  0  0  0  0  0  0  0
  -14.3520  -19.9030  -24.6260 C   0  0  0  0  0  0  0  0  0  0  0  0
  -14.0700  -21.2600  -24.7270 C   0  0  0  0  0  0  0  0  0  0  0  0
  -14.2480  -21.9260  -25.9420 C   0  0  0  0  0  0  0  0  0  0  0  0
  -14.7360  -21.2250  -27.0450 C   0  0  0  0  0  0  0  0  0  0  0  0
  -15.0230  -19.8750  -26.9460 C   0  0  0  0  0  0  0  0  0  0  0  0
  -13.7700  -23.3700  -26.1010 C   0  0  0  0  0  0  0  0  0  0  0  0
  -12.7870  -23.5800  -27.2600 C   0  0  0  0  0  0  0  0  0  0  0  0
  -15.0180  -24.2480  -26.1790 C   0  0  0  0  0  0  0  0  0  0  0  0
  -13.0240  -23.8430  -25.0100 O   0  0  0  0  0  0  0  0  0  0  0  0
  -14.3496  -12.6020  -28.1249 H   0  0  0  0  0  0  0  0  0  0  0  0
  -15.6234  -11.7089  -26.1820 H   0  0  0  0  0  0  0  0  0  0  0  0
  -16.6127  -13.2714  -24.4990 H   0  0  0  0  0  0  0  0  0  0  0  0
  -16.1406  -17.9492  -23.9227 H   0  0  0  0  0  0  0  0  0  0  0  0
  -14.2063  -19.3831  -23.6676 H   0  0  0  0  0  0  0  0  0  0  0  0
  -13.7056  -21.8113  -23.8477 H   0  0  0  0  0  0  0  0  0  0  0  0
  -14.8936  -21.7487  -27.9994 H   0  0  0  0  0  0  0  0  0  0  0  0
  -15.4123  -19.3342  -27.8212 H   0  0  0  0  0  0  0  0  0  0  0  0
  -11.7859  -23.7939  -26.8575 H   0  0  0  0  0  0  0  0  0  0  0  0
  -13.1228  -24.4267  -27.8768 H   0  0  0  0  0  0  0  0  0  0  0  0
  -12.7475  -22.6700  -27.8768 H   0  0  0  0  0  0  0  0  0  0  0  0
  -15.3608  -24.4892  -25.1620 H   0  0  0  0  0  0  0  0  0  0  0  0
  -15.8126  -23.7089  -26.7156 H   0  0  0  0  0  0  0  0  0  0  0  0
  -14.7791  -25.1780  -26.7156 H   0  0  0  0  0  0  0  0  0  0  0  0
  -13.4613  -23.5657  -24.1662 H   0  0  0  0  0  0  0  0  0  0  0  0
  1  3  2  0
  1  2  1  0
  1 12  1  0
  2  4  2  0
  2  5  1  0
  3  6  1  0
  4  7  1  0
  4  8  1  0
  5 11  2  0
  6  7  2  0
  8 10  2  0
  8  9  1  0
  9 11  1  0
 11 13  1  0
 13 14  2  0
 13 18  1  0
 14 15  1  0
 15 16  2  0
 16 17  1  0
 16 19  1  0
 17 18  2  0
 19 22  1  0
 19 20  1  0
 19 21  1  0
  3 23  1  0
  6 24  1  0
  7 25  1  0
  9 26  1  0
 14 27  1  0
 15 28  1  0
 17 29  1  0
 18 30  1  0
 20 31  1  0
 20 32  1  0
 20 33  1  0
 21 34  1  0
 21 35  1  0
 21 36  1  0
 22 37  1  0
M  END
>  <s_m_entry_id>  (1) 
2348

>  <MODEL>  (1) 
1

>  <REMARK>  (1) 
 VINA RESULT:   -11.575      0.000      0.000
 INTER + INTRA:         -13.713
 INTER:                 -13.266
 INTRA:                  -0.446
 UNBOUND:                -0.446
  Name = 5f
  5 active torsions:
  status: ('A' for Active; 'I' for Inactive)
    1  A    between atoms: C_11  and  C_12
    2  A    between atoms: C_15  and  C_18
    3  A    between atoms: C_18  and  O_19
    4  A    between atoms: C_18  and  C_20
    5  A    between atoms: C_18  and  C_21
                            x       y       z     vdW  Elec       q    Type
                         _______ _______ _______ _____ _____    ______ ____

>  <TORSDO>  (1) 
F 3

>  <s_m_Source_Path>  (1) 
/projects/mai/users/kmzp800_harry/pmx_colab/docking_jobs/tnks2/vina_prep/output

>  <s_m_Source_File>  (1) 
tnks_naive_vina.sdf

>  <i_m_Source_File_Index>  (1) 
21

>  <index_string>  (1) 
20:0:0

$$$$
