0:0:0
     RDKit          3D

 42 44  0  0  1  0  0  0  0  0999 V2000
   42.3210   12.8060   15.7170 C   0  0  0  0  0  0  0  0  0  0  0  0
   43.4210   13.6160   16.7040 S   0  0  0  0  0  0  0  0  0  0  0  0
   43.3680   15.0880   15.9050 C   0  0  0  0  0  0  0  0  0  0  0  0
   42.4760   14.9860   14.8390 C   0  0  0  0  0  0  0  0  0  0  0  0
   41.8910   13.6960   14.7170 C   0  0  0  0  0  0  0  0  0  0  0  0
   40.7630   13.1620   13.2510 Br  0  0  0  0  0  0  0  0  0  0  0  0
   42.3120    9.1940   16.9020 C   0  0  0  0  0  0  0  0  0  0  0  0
   42.6850   10.5310   16.7410 C   0  0  0  0  0  0  0  0  0  0  0  0
   41.9350   11.3900   15.9260 C   0  0  0  0  0  0  0  0  0  0  0  0
   40.8120   10.8760   15.2620 C   0  0  0  0  0  0  0  0  0  0  0  0
   40.4290    9.5360   15.4170 C   0  0  0  0  0  0  0  0  0  0  0  0
   41.1850    8.7000   16.2420 C   0  0  0  0  0  0  0  0  0  0  0  0
   39.2800    9.0020   14.7440 N   0  0  0  0  0  0  0  0  0  0  0  0
   38.9200    7.5880   14.6510 C   0  0  0  0  0  0  0  0  0  0  0  0
   39.4970    6.9480   13.4030 C   0  0  0  0  0  0  0  0  0  0  0  0
   38.4540    5.9530   12.9510 C   0  0  0  0  0  0  0  0  0  0  0  0
   37.1250    6.5360   13.3840 C   0  0  0  0  0  0  0  0  0  0  0  0
   37.4130    7.3950   14.6030 C   0  0  0  0  0  0  0  0  0  0  0  0
   44.1410   16.2770   16.2970 C   0  0  0  0  0  0  0  0  0  0  0  0
   44.4800   17.1230   15.4280 O   0  0  0  0  0  0  0  0  0  0  0  0
   44.5060   16.4800   17.6230 O   0  0  0  0  0  0  0  0  0  0  0  0
   42.2400   16.0860   14.0020 O   0  0  0  0  0  0  0  0  0  0  0  0
   41.1760   17.0100   14.1630 C   0  0  0  0  0  0  0  0  0  0  0  0
   40.4020   17.1030   12.8980 C   0  0  0  0  0  0  0  0  0  0  0  0
   39.1440   17.1110   12.9290 O   0  0  0  0  0  0  0  0  0  0  0  0
   41.0670   17.2250   11.6850 O   0  0  0  0  0  0  0  0  0  0  0  0
   42.9059    8.5310   17.5483 H   0  0  0  0  0  0  0  0  0  0  0  0
   43.5767   10.9134   17.2594 H   0  0  0  0  0  0  0  0  0  0  0  0
   40.2215   11.5350   14.6085 H   0  0  0  0  0  0  0  0  0  0  0  0
   40.8913    7.6480   16.3723 H   0  0  0  0  0  0  0  0  0  0  0  0
   38.6514    9.6762   14.2845 H   0  0  0  0  0  0  0  0  0  0  0  0
   39.3353    7.1119   15.5515 H   0  0  0  0  0  0  0  0  0  0  0  0
   39.6698    7.7063   12.6250 H   0  0  0  0  0  0  0  0  0  0  0  0
   40.4671    6.4674   13.5978 H   0  0  0  0  0  0  0  0  0  0  0  0
   38.4840    5.8343   11.8578 H   0  0  0  0  0  0  0  0  0  0  0  0
   38.6242    4.9571   13.3860 H   0  0  0  0  0  0  0  0  0  0  0  0
   36.6977    7.1502   12.5776 H   0  0  0  0  0  0  0  0  0  0  0  0
   36.3976    5.7441   13.6159 H   0  0  0  0  0  0  0  0  0  0  0  0
   37.0659    6.8880   15.5154 H   0  0  0  0  0  0  0  0  0  0  0  0
   36.8908    8.3611   14.5403 H   0  0  0  0  0  0  0  0  0  0  0  0
   40.5144   16.6692   14.9730 H   0  0  0  0  0  0  0  0  0  0  0  0
   41.5858   17.9993   14.4145 H   0  0  0  0  0  0  0  0  0  0  0  0
  1  9  1  0
  1  2  1  0
  1  5  2  0
  2  3  1  0
  3 19  1  0
  3  4  2  0
  4  5  1  0
  4 22  1  0
  5  6  1  0
  7  8  2  0
  7 12  1  0
  7 27  1  0
  8  9  1  0
  8 28  1  0
  9 10  2  0
 10 11  1  0
 10 29  1  0
 11 12  2  0
 11 13  1  0
 12 30  1  0
 13 14  1  0
 13 31  1  0
 14 15  1  0
 14 18  1  0
 14 32  1  0
 15 16  1  0
 15 33  1  0
 15 34  1  0
 16 17  1  0
 16 35  1  0
 16 36  1  0
 17 18  1  0
 17 37  1  0
 17 38  1  0
 18 39  1  0
 18 40  1  0
 19 21  1  0
 19 20  2  0
 22 23  1  0
 23 24  1  0
 23 41  1  0
 23 42  1  0
 24 25  1  0
 24 26  2  0
M  CHG  2  21  -1  25  -1
M  END
>  <s_m_entry_id>  (1) 
1217

>  <MODEL>  (1) 
3

>  <REMARK>  (1) 
 VINA RESULT:    -6.652      4.464      7.583
 INTER + INTRA:         -10.687
 INTER:                 -10.595
 INTRA:                  -0.092
 UNBOUND:                -1.313
  Name = /scratch/kmzp800/tmp3_cd83oe/tmpckwm1xib.pdb
  7 active torsions:
  status: ('A' for Active; 'I' for Inactive)
    1  A    between atoms: C3_3  and  C4_4
    2  A    between atoms: C5_6  and  C6_7
    3  A    between atoms: C7_10  and  O3_11
    4  A    between atoms: O3_11  and  C8_12
    5  A    between atoms: C8_12  and  C9_13
    6  A    between atoms: C12_19  and  N1_20
    7  A    between atoms: N1_20  and  C13_21
                            x       y       z     vdW  Elec       q    Type
                         _______ _______ _______ _____ _____    ______ ____

>  <TORSDO>  (1) 
F 7

>  <grid_id>  (1) 
ptp1b-prepared

>  <grid_path>  (1) 
ptp1b_vina.pdbqt

>  <grid_filename>  (1) 
ptp1b_vina.pdbqt

>  <docking_score>  (1) 
-6.652

>  <compound_name>  (1) 
lig_23475

>  <index_string>  (1) 
0:0:0

>  <s_m_Source_Path>  (1) 
/projects/mai/users/kmzp800_harry/pmx_colab/docking_jobs/ptp1b

>  <s_m_Source_File>  (1) 
ptp1b_confs_vina_mcs.sdf

>  <i_m_Source_File_Index>  (1) 
1

$$$$
