6:0:0
     RDKit          3D

 37 39  0  0  1  0  0  0  0  0999 V2000
  -14.4482  -14.8270  -27.6822 C   0  0  0  0  0  0  0  0  0  0  0  0
  -15.0287  -15.6247  -26.6867 C   0  0  0  0  0  0  0  0  0  0  0  0
  -14.5241  -13.4334  -27.5972 C   0  0  0  0  0  0  0  0  0  0  0  0
  -15.7370  -15.0282  -25.6156 C   0  0  0  0  0  0  0  0  0  0  0  0
  -14.8479  -17.0126  -26.7542 N   0  0  0  0  0  0  0  0  0  0  0  0
  -15.2209  -12.8414  -26.5368 C   0  0  0  0  0  0  0  0  0  0  0  0
  -15.8233  -13.6252  -25.5382 C   0  0  0  0  0  0  0  0  0  0  0  0
  -16.3645  -15.9465  -24.6119 C   0  0  0  0  0  0  0  0  0  0  0  0
  -16.1258  -17.2415  -24.8111 N   0  0  0  0  0  0  0  0  0  0  0  0
  -17.0527  -15.5724  -23.6674 O   0  0  0  0  0  0  0  0  0  0  0  0
  -15.3702  -17.7889  -25.8513 C   0  0  0  0  0  0  0  0  0  0  0  0
  -15.1967  -19.2631  -25.9310 C   0  0  0  0  0  0  0  0  0  0  0  0
  -14.7767  -19.8393  -27.1386 C   0  0  0  0  0  0  0  0  0  0  0  0
  -14.5423  -21.2161  -27.2224 C   0  0  0  0  0  0  0  0  0  0  0  0
  -14.7394  -22.0586  -26.1103 C   0  0  0  0  0  0  0  0  0  0  0  0
  -15.2061  -21.4770  -24.9106 C   0  0  0  0  0  0  0  0  0  0  0  0
  -15.4363  -20.0920  -24.8198 C   0  0  0  0  0  0  0  0  0  0  0  0
  -14.4457  -23.5490  -26.1811 C   0  0  0  0  0  0  0  0  0  0  0  0
  -14.1467  -23.9728  -27.5023 O   0  0  0  0  0  0  0  0  0  0  0  0
  -15.3170  -11.4988  -26.4875 F   0  0  0  0  0  0  0  0  0  0  0  0
  -16.4525  -13.0143  -24.5070 F   0  0  0  0  0  0  0  0  0  0  0  0
  -13.1762  -23.8420  -25.3488 C   0  0  0  0  0  0  0  0  0  0  0  0
  -15.6912  -24.3280  -25.7020 C   0  0  0  0  0  0  0  0  0  0  0  0
  -13.9092  -15.2885  -28.4972 H   0  0  0  0  0  0  0  0  0  0  0  0
  -14.0636  -12.8133  -28.3563 H   0  0  0  0  0  0  0  0  0  0  0  0
  -16.5581  -17.8938  -24.1720 H   0  0  0  0  0  0  0  0  0  0  0  0
  -14.6094  -19.2387  -28.0178 H   0  0  0  0  0  0  0  0  0  0  0  0
  -14.1867  -21.5727  -28.1728 H   0  0  0  0  0  0  0  0  0  0  0  0
  -15.3833  -22.0969  -24.0455 H   0  0  0  0  0  0  0  0  0  0  0  0
  -15.7857  -19.6901  -23.8816 H   0  0  0  0  0  0  0  0  0  0  0  0
  -13.9453  -24.8976  -27.5025 H   0  0  0  0  0  0  0  0  0  0  0  0
  -12.3467  -23.2445  -25.7265 H   0  0  0  0  0  0  0  0  0  0  0  0
  -12.8321  -24.8798  -25.3737 H   0  0  0  0  0  0  0  0  0  0  0  0
  -13.3181  -23.5649  -24.3051 H   0  0  0  0  0  0  0  0  0  0  0  0
  -16.5545  -24.0460  -26.2989 H   0  0  0  0  0  0  0  0  0  0  0  0
  -15.5446  -25.3985  -25.8994 H   0  0  0  0  0  0  0  0  0  0  0  0
  -15.9237  -24.1643  -24.6517 H   0  0  0  0  0  0  0  0  0  0  0  0
  1  2  2  0
  1  3  1  0
  1 24  1  0
  2  4  1  0
  2  5  1  0
  3  6  2  0
  3 25  1  0
  4  7  2  0
  4  8  1  0
  5 11  2  0
  6  7  1  0
  6 20  1  0
  7 21  1  0
  8  9  1  0
  8 10  2  0
  9 11  1  0
  9 26  1  0
 11 12  1  0
 12 13  2  0
 12 17  1  0
 13 14  1  0
 13 27  1  0
 14 15  2  0
 14 28  1  0
 15 16  1  0
 15 18  1  0
 16 17  2  0
 16 29  1  0
 17 30  1  0
 18 19  1  0
 18 22  1  0
 18 23  1  0
 19 31  1  0
 22 32  1  0
 22 33  1  0
 22 34  1  0
 23 35  1  0
 23 36  1  0
 23 37  1  0
M  END
>  <s_m_entry_id>  (1) 
503

>  <Name>  (1) 
5j

>  <IC50[nM]>  (1) 
7.5

>  <s_m_Source_Path>  (1) 
/projects/mai/users/kmzp800_harry/pmx_colab/docking_jobs/tnks2

>  <s_m_Source_File>  (1) 
tnks2_lig.sdf

>  <i_m_Source_File_Index>  (1) 
2

>  <s_m_job_name>  (1) 
glide-dock_SP_tnks_mcs_fallabck

>  <r_i_docking_score>  (1) 
-10.100926109912

>  <r_i_glide_gscore>  (1) 
-10.100926109912

>  <r_i_glide_emodel>  (1) 
-49.8765020273983

>  <index_string>  (1) 
6:0:0

$$$$
