15:0:0
     RDKit          3D

 39 43  0  0  1  0  0  0  0  0999 V2000
    1.5677   -1.2899   15.2939 N   0  0  0  0  0  0  0  0  0  0  0  0
    0.2241   -1.5592   14.9824 C   0  0  0  0  0  0  0  0  0  0  0  0
   -0.3736   -2.6384   15.6671 C   0  0  0  0  0  0  0  0  0  0  0  0
   -1.7181   -2.9865   15.4380 C   0  0  0  0  0  0  0  0  0  0  0  0
   -2.4853   -2.2564   14.5108 C   0  0  0  0  0  0  0  0  0  0  0  0
   -1.9050   -1.1776   13.8175 C   0  0  0  0  0  0  0  0  0  0  0  0
   -0.5620   -0.8259   14.0551 C   0  0  0  0  0  0  0  0  0  0  0  0
    2.5226   -0.4233   14.7316 C   0  0  0  0  0  0  0  0  0  0  0  0
    2.1925    0.3916   13.7626 N   0  0  0  0  0  0  0  0  0  0  0  0
    3.1193    1.2757   13.2484 C   0  0  0  0  0  0  0  0  0  0  0  0
    4.4277    1.2916   13.6827 C   0  0  0  0  0  0  0  0  0  0  0  0
    4.7595    0.4747   14.7149 N   0  0  0  0  0  0  0  0  0  0  0  0
    5.9087    0.3751   15.4741 C   0  0  0  0  0  0  0  0  0  0  0  0
    5.6062   -0.4992   16.4866 C   0  0  0  0  0  0  0  0  0  0  0  0
    4.3702   -1.0735   16.3196 N   0  0  0  0  0  0  0  0  0  0  0  0
    3.8283   -0.4194   15.2908 C   0  0  0  0  0  0  0  0  0  0  0  0
    2.6411    2.2509   12.2348 C   0  0  0  0  0  0  0  0  0  0  0  0
    3.5195    2.7749   11.2494 C   0  0  0  0  0  0  0  0  0  0  0  0
    3.0767    3.6776   10.2583 C   0  0  0  0  0  0  0  0  0  0  0  0
    1.7297    4.1019   10.2268 C   0  0  0  0  0  0  0  0  0  0  0  0
    0.9117    4.9578    9.4194 C   0  0  0  0  0  0  0  0  0  0  0  0
   -0.3251    5.0025    9.8536 N   0  0  0  0  0  0  0  0  0  0  0  0
   -0.3523    4.1991   10.9495 N   0  0  0  0  0  0  0  0  0  0  0  0
    0.8637    3.6040   11.2376 C   0  0  0  0  0  0  0  0  0  0  0  0
    1.3008    2.7003   12.2253 C   0  0  0  0  0  0  0  0  0  0  0  0
    1.9541   -1.8804   16.0200 H   0  0  0  0  0  0  0  0  0  0  0  0
    0.1989   -3.2103   16.3845 H   0  0  0  0  0  0  0  0  0  0  0  0
   -2.1603   -3.8120   15.9814 H   0  0  0  0  0  0  0  0  0  0  0  0
   -3.5141   -2.5233   14.3298 H   0  0  0  0  0  0  0  0  0  0  0  0
   -2.4824   -0.6162   13.0973 H   0  0  0  0  0  0  0  0  0  0  0  0
   -0.1678    0.0123   13.5045 H   0  0  0  0  0  0  0  0  0  0  0  0
    5.1866    1.9845   13.3423 H   0  0  0  0  0  0  0  0  0  0  0  0
    6.7668    0.9986   15.2702 H   0  0  0  0  0  0  0  0  0  0  0  0
    6.1379   -0.7476   17.3784 H   0  0  0  0  0  0  0  0  0  0  0  0
    4.5518    2.4634   11.2244 H   0  0  0  0  0  0  0  0  0  0  0  0
    3.7669    4.0416    9.5135 H   0  0  0  0  0  0  0  0  0  0  0  0
    1.1906    5.5383    8.5499 H   0  0  0  0  0  0  0  0  0  0  0  0
   -1.2078    4.0796   11.4707 H   0  0  0  0  0  0  0  0  0  0  0  0
    0.6098    2.3456   12.9724 H   0  0  0  0  0  0  0  0  0  0  0  0
  1  2  1  0
  1  8  1  0
  1 26  1  0
  2  3  2  0
  2  7  1  0
  3  4  1  0
  3 27  1  0
  4  5  2  0
  4 28  1  0
  5  6  1  0
  5 29  1  0
  6  7  2  0
  6 30  1  0
  7 31  1  0
  8  9  2  0
  8 16  1  0
  9 10  1  0
 10 11  2  0
 10 17  1  0
 11 12  1  0
 11 32  1  0
 12 13  1  0
 12 16  1  0
 13 14  2  0
 13 33  1  0
 14 15  1  0
 14 34  1  0
 15 16  2  0
 17 18  2  0
 17 25  1  0
 18 19  1  0
 18 35  1  0
 19 20  2  0
 19 36  1  0
 20 21  1  0
 20 24  1  0
 21 22  2  0
 21 37  1  0
 22 23  1  0
 23 24  1  0
 23 38  1  0
 24 25  2  0
 25 39  1  0
M  END
>  <s_m_entry_id>  (1) 
1003

>  <IC50[nM]>  (1) 
26.8

>  <s_m_Source_Path>  (1) 
/projects/mai/users/kmzp800_harry/pmx_colab/docking_jobs/syk

>  <s_m_Source_File>  (1) 
tnks2_lig.sdf

>  <i_m_Source_File_Index>  (1) 
16

>  <s_m_job_name>  (1) 
glide-dock_SP_tnks2_core_const

>  <r_i_docking_score>  (1) 
-6.95806547855823

>  <r_i_glide_gscore>  (1) 
-6.95806547855823

>  <r_i_glide_emodel>  (1) 
-39.2955933350969

>  <index_string>  (1) 
15:0:0

$$$$
