43:0:0
     RDKit          3D

 65 70  0  0  1  0  0  0  0  0999 V2000
   -1.4340   -0.7370   13.7710 C   0  0  0  0  0  0  0  0  0  0  0  0
   -1.7770   -1.9300   14.4230 C   0  0  0  0  0  0  0  0  0  0  0  0
   -0.8160   -2.6380   15.1490 C   0  0  0  0  0  0  0  0  0  0  0  0
    0.4940   -2.1580   15.2290 C   0  0  0  0  0  0  0  0  0  0  0  0
    0.8560   -0.9680   14.5800 C   0  0  0  0  0  0  0  0  0  0  0  0
   -0.1170   -0.2650   13.8540 C   0  0  0  0  0  0  0  0  0  0  0  0
    2.2360   -0.4470   14.6520 C   0  0  0  0  0  0  0  0  0  0  0  0
    2.6400    0.5400   13.7910 N   0  0  0  0  0  0  0  0  0  0  0  0
    3.9030    1.0580   13.8150 C   0  0  0  0  0  0  0  0  0  0  0  0
    4.3130    2.0920   12.9110 N   0  0  0  0  0  0  0  0  0  0  0  0
    4.7880    0.5530   14.7640 C   0  0  0  0  0  0  0  0  0  0  0  0
    6.0650    0.9280   14.9540 N   0  0  0  0  0  0  0  0  0  0  0  0
    6.4800    0.1400   15.9780 C   0  0  0  0  0  0  0  0  0  0  0  0
    5.4450   -0.6980   16.3880 C   0  0  0  0  0  0  0  0  0  0  0  0
    4.3980   -0.4110   15.6030 N   0  0  0  0  0  0  0  0  0  0  0  0
    3.1540   -0.9460   15.5960 C   0  0  0  0  0  0  0  0  0  0  0  0
    3.5650    2.6150   11.8030 C   0  0  0  0  0  0  0  0  0  0  0  0
    4.1490    2.8420   10.5510 C   0  0  0  0  0  0  0  0  0  0  0  0
    3.3940    3.3780    9.5050 C   0  0  0  0  0  0  0  0  0  0  0  0
    2.0410    3.6970    9.6980 C   0  0  0  0  0  0  0  0  0  0  0  0
    1.4480    3.4710   10.9500 C   0  0  0  0  0  0  0  0  0  0  0  0
    2.2180    2.9340   11.9950 C   0  0  0  0  0  0  0  0  0  0  0  0
    1.2690    4.2420    8.6660 O   0  0  0  0  0  0  0  0  0  0  0  0
    0.2300    3.5200    8.0170 C   0  0  0  0  0  0  0  0  0  0  0  0
    0.0980    3.7890   11.1340 O   0  0  0  0  0  0  0  0  0  0  0  0
   -0.3680    5.1250   11.2540 C   0  0  0  0  0  0  0  0  0  0  0  0
   -2.1790    1.3860   12.6500 N   0  0  0  0  0  0  0  0  0  0  0  0
   -2.4440    0.0230   13.0130 C   0  0  0  0  0  0  0  0  0  0  0  0
   -3.5340   -0.5270   12.6980 O   0  0  0  0  0  0  0  0  0  0  0  0
   -4.7300    4.0360   10.5270 C   0  0  0  0  0  0  0  0  0  0  0  0
   -4.1960    2.9160    9.8760 C   0  0  0  0  0  0  0  0  0  0  0  0
   -3.3550    2.0360   10.5650 C   0  0  0  0  0  0  0  0  0  0  0  0
   -3.0390    2.2650   11.9120 C   0  0  0  0  0  0  0  0  0  0  0  0
   -3.5720    3.3830   12.5590 C   0  0  0  0  0  0  0  0  0  0  0  0
   -4.4120    4.2640   11.8730 C   0  0  0  0  0  0  0  0  0  0  0  0
   -6.9770    5.7370    8.3630 C   0  0  0  0  0  0  0  0  0  0  0  0
   -6.3100    4.6200    8.7040 N   0  0  0  0  0  0  0  0  0  0  0  0
   -5.6130    4.9640    9.8050 C   0  0  0  0  0  0  0  0  0  0  0  0
   -5.8070    6.2440   10.1770 N   0  0  0  0  0  0  0  0  0  0  0  0
   -6.6680    6.7340    9.2670 C   0  0  0  0  0  0  0  0  0  0  0  0
   -2.8074   -2.3102   14.3626 H   0  0  0  0  0  0  0  0  0  0  0  0
   -1.0906   -3.5737   15.6579 H   0  0  0  0  0  0  0  0  0  0  0  0
    1.2464   -2.7170   15.8047 H   0  0  0  0  0  0  0  0  0  0  0  0
    0.1575    0.6695   13.3429 H   0  0  0  0  0  0  0  0  0  0  0  0
    5.2431    2.5035   13.0737 H   0  0  0  0  0  0  0  0  0  0  0  0
    7.4871    0.1599   16.4201 H   0  0  0  0  0  0  0  0  0  0  0  0
    5.4805   -1.4453   17.1944 H   0  0  0  0  0  0  0  0  0  0  0  0
    2.8711   -1.7410   16.3017 H   0  0  0  0  0  0  0  0  0  0  0  0
    5.2091    2.5967   10.3899 H   0  0  0  0  0  0  0  0  0  0  0  0
    3.8624    3.5510    8.5249 H   0  0  0  0  0  0  0  0  0  0  0  0
    1.7545    2.7623   12.9777 H   0  0  0  0  0  0  0  0  0  0  0  0
   -0.4266    3.0637    8.7724 H   0  0  0  0  0  0  0  0  0  0  0  0
   -0.3561    4.2064    7.3883 H   0  0  0  0  0  0  0  0  0  0  0  0
    0.6690    2.7313    7.3883 H   0  0  0  0  0  0  0  0  0  0  0  0
   -0.4595    5.3872   12.3184 H   0  0  0  0  0  0  0  0  0  0  0  0
    0.3453    5.8071   10.7683 H   0  0  0  0  0  0  0  0  0  0  0  0
   -1.3508    5.2156   10.7683 H   0  0  0  0  0  0  0  0  0  0  0  0
   -1.2741    1.7746   12.9519 H   0  0  0  0  0  0  0  0  0  0  0  0
   -4.4390    2.7282    8.8197 H   0  0  0  0  0  0  0  0  0  0  0  0
   -2.9390    1.1591   10.0472 H   0  0  0  0  0  0  0  0  0  0  0  0
   -3.3287    3.5707   13.6152 H   0  0  0  0  0  0  0  0  0  0  0  0
   -4.8259    5.1411   12.3920 H   0  0  0  0  0  0  0  0  0  0  0  0
   -7.6572    5.8395    7.5046 H   0  0  0  0  0  0  0  0  0  0  0  0
   -5.3894    6.7373   10.9790 H   0  0  0  0  0  0  0  0  0  0  0  0
   -7.0616    7.7610    9.2464 H   0  0  0  0  0  0  0  0  0  0  0  0
  1  6  1  0
  1  2  2  0
  1 28  1  0
  2  3  1  0
  3  4  2  0
  4  5  1  0
  5  7  1  0
  5  6  2  0
  7 16  2  0
  7  8  1  0
  8  9  2  0
  9 11  1  0
  9 10  1  0
 10 17  1  0
 11 12  2  0
 11 15  1  0
 12 13  1  0
 13 14  2  0
 14 15  1  0
 15 16  1  0
 17 22  1  0
 17 18  2  0
 18 19  1  0
 19 20  2  0
 20 21  1  0
 20 23  1  0
 21 25  1  0
 21 22  2  0
 23 24  1  0
 25 26  1  0
 27 28  1  0
 27 33  1  0
 28 29  2  0
 30 35  1  0
 30 31  2  0
 30 38  1  0
 31 32  1  0
 32 33  2  0
 33 34  1  0
 34 35  2  0
 36 37  1  0
 36 40  2  0
 37 38  2  0
 38 39  1  0
 39 40  1  0
  2 41  1  0
  3 42  1  0
  4 43  1  0
  6 44  1  0
 10 45  1  0
 13 46  1  0
 14 47  1  0
 16 48  1  0
 18 49  1  0
 19 50  1  0
 22 51  1  0
 24 52  1  0
 24 53  1  0
 24 54  1  0
 26 55  1  0
 26 56  1  0
 26 57  1  0
 27 58  1  0
 31 59  1  0
 32 60  1  0
 34 61  1  0
 35 62  1  0
 36 63  1  0
 39 64  1  0
 40 65  1  0
M  END
>  <s_m_entry_id>  (1) 
1229

>  <MODEL>  (1) 
2

>  <REMARK>  (1) 
 VINA RESULT:   -11.823      3.394      7.809
 INTER + INTRA:         -12.855
 INTER:                 -11.674
 INTRA:                  -1.181
 UNBOUND:                 3.807
  Name = /scratch/kmzp800/tmpdylzias9/tmphe07asir.pdb
  9 active torsions:
  status: ('A' for Active; 'I' for Inactive)
    1  A    between atoms: C2_3  and  C3_4
    2  A    between atoms: C6_7  and  N2_8
    3  A    between atoms: C7_9  and  C8_11
    4  A    between atoms: C12_15  and  C13_16
    5  A    between atoms: N4_19  and  C15_20
    6  A    between atoms: C18_23  and  O2_24
    7  A    between atoms: O2_24  and  C19_25
    8  A    between atoms: C20_26  and  O3_27
    9  A    between atoms: O3_27  and  C21_28
                            x       y       z     vdW  Elec       q    Type
                         _______ _______ _______ _____ _____    ______ ____

>  <TORSDO>  (1) 
F 7

>  <grid_id>  (1) 
syk-prepared

>  <grid_path>  (1) 
syk_vina.pdbqt

>  <grid_filename>  (1) 
syk_vina.pdbqt

>  <docking_score>  (1) 
-11.823

>  <compound_name>  (1) 
CHEMBL3265002

>  <index_string>  (1) 
43:0:0

>  <s_m_Source_Path>  (1) 
/projects/mai/users/kmzp800_harry/pmx_colab/docking_jobs/syk/vina_prep/output

>  <s_m_Source_File>  (1) 
ptp1b_docked_conformers.sdf

>  <i_m_Source_File_Index>  (1) 
1053

$$$$
