34:0:0
     RDKit          3D

 65 69  0  0  1  0  0  0  0  0999 V2000
    6.0750   -0.3860   16.3210 C   0  0  0  0  0  0  0  0  0  0  0  0
    4.8400   -0.9490   16.2800 N   0  0  0  0  0  0  0  0  0  0  0  0
    4.2160   -0.2690   15.3020 C   0  0  0  0  0  0  0  0  0  0  0  0
    2.9100   -0.4570   14.8590 C   0  0  0  0  0  0  0  0  0  0  0  0
    2.0720   -1.4640   15.4460 N   0  0  0  0  0  0  0  0  0  0  0  0
    2.4670    0.3420   13.8440 N   0  0  0  0  0  0  0  0  0  0  0  0
    3.2540    1.3050   13.2710 C   0  0  0  0  0  0  0  0  0  0  0  0
    4.5710    1.4780   13.7420 C   0  0  0  0  0  0  0  0  0  0  0  0
    4.9870    0.6690   14.7450 N   0  0  0  0  0  0  0  0  0  0  0  0
    6.1730    0.6230   15.3670 C   0  0  0  0  0  0  0  0  0  0  0  0
    0.6940   -1.7210   15.1390 C   0  0  0  0  0  0  0  0  0  0  0  0
    0.0500   -2.7910   15.7660 C   0  0  0  0  0  0  0  0  0  0  0  0
   -1.2930   -3.0670   15.4970 C   0  0  0  0  0  0  0  0  0  0  0  0
   -2.0260   -2.2630   14.6050 C   0  0  0  0  0  0  0  0  0  0  0  0
   -1.3660   -1.2040   13.9600 C   0  0  0  0  0  0  0  0  0  0  0  0
   -0.0240   -0.9310   14.2300 C   0  0  0  0  0  0  0  0  0  0  0  0
   -3.4620   -2.6040   14.2510 C   0  0  0  0  0  0  0  0  0  0  0  0
   -3.6930   -4.1080   14.2400 C   0  0  0  0  0  0  0  0  0  0  0  0
   -3.8390   -2.0760   12.8740 C   0  0  0  0  0  0  0  0  0  0  0  0
   -4.3900   -1.9810   15.2760 C   0  0  0  0  0  0  0  0  0  0  0  0
    2.7130    2.1400   12.1790 C   0  0  0  0  0  0  0  0  0  0  0  0
    3.4770    2.4360   11.0400 C   0  0  0  0  0  0  0  0  0  0  0  0
    2.9480    3.2380   10.0240 C   0  0  0  0  0  0  0  0  0  0  0  0
    1.6510    3.7470   10.1370 C   0  0  0  0  0  0  0  0  0  0  0  0
    0.8730    3.4540   11.2610 C   0  0  0  0  0  0  0  0  0  0  0  0
    1.4140    2.6550   12.2780 C   0  0  0  0  0  0  0  0  0  0  0  0
   -0.4480    4.0020   11.3560 N   0  0  0  0  0  0  0  0  0  0  0  0
   -1.6700    3.2560   11.4660 C   0  0  0  0  0  0  0  0  0  0  0  0
   -1.6700    2.0030   11.3250 O   0  0  0  0  0  0  0  0  0  0  0  0
   -2.9390    3.9570   11.7280 C   0  0  0  0  0  0  0  0  0  0  0  0
   -4.1350    3.4940   11.1620 C   0  0  0  0  0  0  0  0  0  0  0  0
   -5.3400    4.1550   11.4140 C   0  0  0  0  0  0  0  0  0  0  0  0
   -5.3670    5.2880   12.2380 C   0  0  0  0  0  0  0  0  0  0  0  0
   -4.1710    5.7520   12.8050 C   0  0  0  0  0  0  0  0  0  0  0  0
   -2.9660    5.0900   12.5520 C   0  0  0  0  0  0  0  0  0  0  0  0
   -6.6380    5.9810   12.5010 C   0  0  0  0  0  0  0  0  0  0  0  0
   -7.5700    5.9480   11.6540 O   0  0  0  0  0  0  0  0  0  0  0  0
   -6.8220    6.6800   13.6880 O   0  0  0  0  0  0  0  0  0  0  0  0
    6.8807   -0.6839   17.0081 H   0  0  0  0  0  0  0  0  0  0  0  0
    2.5049   -2.0646   16.1621 H   0  0  0  0  0  0  0  0  0  0  0  0
    5.2357    2.2412   13.3112 H   0  0  0  0  0  0  0  0  0  0  0  0
    7.0493    1.2563   15.1642 H   0  0  0  0  0  0  0  0  0  0  0  0
    0.6048   -3.4209   16.4769 H   0  0  0  0  0  0  0  0  0  0  0  0
   -1.7821   -3.9215   15.9876 H   0  0  0  0  0  0  0  0  0  0  0  0
   -1.9124   -0.5834   13.2346 H   0  0  0  0  0  0  0  0  0  0  0  0
    0.4740   -0.0897   13.7258 H   0  0  0  0  0  0  0  0  0  0  0  0
   -3.7498   -4.4778   15.2744 H   0  0  0  0  0  0  0  0  0  0  0  0
   -4.6358   -4.3304   13.7188 H   0  0  0  0  0  0  0  0  0  0  0  0
   -2.8604   -4.6031   13.7188 H   0  0  0  0  0  0  0  0  0  0  0  0
   -4.4750   -1.1853   12.9843 H   0  0  0  0  0  0  0  0  0  0  0  0
   -2.9263   -1.8087   12.3213 H   0  0  0  0  0  0  0  0  0  0  0  0
   -4.3882   -2.8525   12.3213 H   0  0  0  0  0  0  0  0  0  0  0  0
   -4.0324   -2.2211   16.2882 H   0  0  0  0  0  0  0  0  0  0  0  0
   -4.4047   -0.8893   15.1416 H   0  0  0  0  0  0  0  0  0  0  0  0
   -5.4060   -2.3807   15.1416 H   0  0  0  0  0  0  0  0  0  0  0  0
    4.4971    2.0352   10.9458 H   0  0  0  0  0  0  0  0  0  0  0  0
    3.5532    3.4686    9.1348 H   0  0  0  0  0  0  0  0  0  0  0  0
    1.2405    4.3813    9.3375 H   0  0  0  0  0  0  0  0  0  0  0  0
    0.8087    2.4288   13.1682 H   0  0  0  0  0  0  0  0  0  0  0  0
   -0.5284    5.0288   11.3442 H   0  0  0  0  0  0  0  0  0  0  0  0
   -4.1248    2.6044   10.5151 H   0  0  0  0  0  0  0  0  0  0  0  0
   -6.2723    3.7840   10.9632 H   0  0  0  0  0  0  0  0  0  0  0  0
   -4.1812    6.6414   13.4521 H   0  0  0  0  0  0  0  0  0  0  0  0
   -2.0335    5.4608   13.0025 H   0  0  0  0  0  0  0  0  0  0  0  0
   -7.6788    7.1449   13.8610 H   0  0  0  0  0  0  0  0  0  0  0  0
  1  2  1  0
  1 10  2  0
  2  3  2  0
  3  4  1  0
  3  9  1  0
  4  5  1  0
  4  6  2  0
  5 11  1  0
  6  7  1  0
  7  8  2  0
  7 21  1  0
  8  9  1  0
  9 10  1  0
 11 12  2  0
 11 16  1  0
 12 13  1  0
 13 14  2  0
 14 15  1  0
 14 17  1  0
 15 16  2  0
 17 20  1  0
 17 18  1  0
 17 19  1  0
 21 26  1  0
 21 22  2  0
 22 23  1  0
 23 24  2  0
 24 25  1  0
 25 27  1  0
 25 26  2  0
 27 28  1  0
 28 30  1  0
 28 29  2  0
 30 35  1  0
 30 31  2  0
 31 32  1  0
 32 33  2  0
 33 36  1  0
 33 34  1  0
 34 35  2  0
 36 38  1  0
 36 37  2  0
  1 39  1  0
  5 40  1  0
  8 41  1  0
 10 42  1  0
 12 43  1  0
 13 44  1  0
 15 45  1  0
 16 46  1  0
 18 47  1  0
 18 48  1  0
 18 49  1  0
 19 50  1  0
 19 51  1  0
 19 52  1  0
 20 53  1  0
 20 54  1  0
 20 55  1  0
 22 56  1  0
 23 57  1  0
 24 58  1  0
 26 59  1  0
 27 60  1  0
 31 61  1  0
 32 62  1  0
 34 63  1  0
 35 64  1  0
 38 65  1  0
M  END
>  <s_m_entry_id>  (1) 
35

>  <MODEL>  (1) 
1

>  <REMARK>  (1) 
 VINA RESULT:   -10.040      0.000      0.000
 INTER + INTRA:         -14.416
 INTER:                 -13.562
 INTRA:                  -0.853
 UNBOUND:                -0.853
  Name = /scratch/kmzp800/tmpsyc2bet_/tmpxjaf1uws.pdb
  9 active torsions:
  status: ('A' for Active; 'I' for Inactive)
    1  A    between atoms: N2_5  and  C4_6
    2  A    between atoms: C7_9  and  C8_10
    3  A    between atoms: C8_10  and  C9_11
    4  A    between atoms: C8_10  and  C10_12
    5  A    between atoms: C8_10  and  C11_13
    6  A    between atoms: C14_17  and  C15_18
    7  A    between atoms: C19_22  and  N4_23
    8  A    between atoms: C20_24  and  C21_26
    9  A    between atoms: C24_29  and  C25_30
                            x       y       z     vdW  Elec       q    Type
                         _______ _______ _______ _____ _____    ______ ____

>  <TORSDO>  (1) 
F 6

>  <grid_id>  (1) 
syk-prepared

>  <grid_path>  (1) 
syk_vina.pdbqt

>  <grid_filename>  (1) 
syk_vina.pdbqt

>  <docking_score>  (1) 
-10.04

>  <compound_name>  (1) 
CHEMBL3264994

>  <index_string>  (1) 
34:0:0

>  <s_m_Source_Path>  (1) 
/projects/mai/users/kmzp800_harry/pmx_colab/docking_jobs/syk/vina_prep/output

>  <s_m_Source_File>  (1) 
ptp1b_docked_conformers.sdf

>  <i_m_Source_File_Index>  (1) 
35

$$$$
