17:0:0
     RDKit          3D

 60 63  0  0  1  0  0  0  0  0999 V2000
   41.3838   17.4863   11.6332 O   0  0  0  0  0  0  0  0  0  0  0  0
   40.5394   17.4075   12.5550 C   0  0  0  0  0  0  0  0  0  0  0  0
   39.3839   17.8862   12.5029 O   0  0  0  0  0  0  0  0  0  0  0  0
   40.9406   16.6820   13.8395 C   0  0  0  0  0  0  0  0  0  0  0  0
   42.1240   15.9243   13.6268 O   0  0  0  0  0  0  0  0  0  0  0  0
   42.3995   15.0393   14.6074 C   0  0  0  0  0  0  0  0  0  0  0  0
   41.8974   13.7166   14.6521 C   0  0  0  0  0  0  0  0  0  0  0  0
   40.7319   13.1079   13.2940 Br  0  0  0  0  0  0  0  0  0  0  0  0
   42.3140   12.9520   15.7123 C   0  0  0  0  0  0  0  0  0  0  0  0
   43.3838   13.8905   16.7183 S   0  0  0  0  0  0  0  0  0  0  0  0
   43.1815   15.3076   15.6966 C   0  0  0  0  0  0  0  0  0  0  0  0
   43.8168   16.5586   16.1215 C   0  0  0  0  0  0  0  0  0  0  0  0
   43.9527   17.4863   15.2940 O   0  0  0  0  0  0  0  0  0  0  0  0
   44.1910   16.6863   17.3059 O   0  0  0  0  0  0  0  0  0  0  0  0
   41.9689   11.5772   16.0717 C   0  0  0  0  0  0  0  0  0  0  0  0
   42.9090   10.6756   16.6172 C   0  0  0  0  0  0  0  0  0  0  0  0
   42.5384    9.3418   16.8939 C   0  0  0  0  0  0  0  0  0  0  0  0
   41.2377    8.8827   16.5945 C   0  0  0  0  0  0  0  0  0  0  0  0
   40.2888    9.7787   16.0547 C   0  0  0  0  0  0  0  0  0  0  0  0
   40.6595   11.1150   15.8420 C   0  0  0  0  0  0  0  0  0  0  0  0
   38.9766    9.4409   15.6970 N   0  0  0  0  0  0  0  0  0  0  0  0
   38.5919    8.0756   15.3659 C   0  0  0  0  0  0  0  0  0  0  0  0
   37.0570    7.9811   15.3494 C   0  0  0  0  0  0  0  0  0  0  0  0
   36.5639    6.5932   14.9166 C   0  0  0  0  0  0  0  0  0  0  0  0
   37.1381    6.2282   13.6109 N   0  0  0  0  0  0  0  0  0  0  0  0
   38.6130    6.2787   13.5510 C   0  0  0  0  0  0  0  0  0  0  0  0
   39.1301    7.6630   13.9834 C   0  0  0  0  0  0  0  0  0  0  0  0
   36.2708    5.1361   12.5824 S   0  0  0  0  0  0  0  0  0  0  0  0
   34.8480    5.5123   12.6175 O   0  0  0  0  0  0  0  0  0  0  0  0
   36.9734    5.0861   11.2938 O   0  0  0  0  0  0  0  0  0  0  0  0
   36.4794    3.5085   13.4142 C   0  0  0  0  0  0  0  0  0  0  0  0
   35.9609    2.4127   12.5025 C   0  0  0  0  0  0  0  0  0  0  0  0
   36.8306    1.7726   11.5928 C   0  0  0  0  0  0  0  0  0  0  0  0
   36.3415    0.7705   10.7319 C   0  0  0  0  0  0  0  0  0  0  0  0
   34.9832    0.4031   10.7807 C   0  0  0  0  0  0  0  0  0  0  0  0
   34.1148    1.0367   11.6907 C   0  0  0  0  0  0  0  0  0  0  0  0
   34.6003    2.0428   12.5473 C   0  0  0  0  0  0  0  0  0  0  0  0
   41.1048   17.4176   14.6285 H   0  0  0  0  0  0  0  0  0  0  0  0
   40.1171   16.0395   14.1549 H   0  0  0  0  0  0  0  0  0  0  0  0
   43.9215   10.9981   16.8137 H   0  0  0  0  0  0  0  0  0  0  0  0
   43.2641    8.6585   17.3093 H   0  0  0  0  0  0  0  0  0  0  0  0
   40.9871    7.8506   16.7874 H   0  0  0  0  0  0  0  0  0  0  0  0
   39.9154   11.7989   15.4687 H   0  0  0  0  0  0  0  0  0  0  0  0
   38.5301   10.1464   15.1152 H   0  0  0  0  0  0  0  0  0  0  0  0
   38.9683    7.3906   16.1259 H   0  0  0  0  0  0  0  0  0  0  0  0
   36.6587    8.2156   16.3375 H   0  0  0  0  0  0  0  0  0  0  0  0
   36.6475    8.7284   14.6667 H   0  0  0  0  0  0  0  0  0  0  0  0
   36.8428    5.8390   15.6532 H   0  0  0  0  0  0  0  0  0  0  0  0
   35.4753    6.5962   14.8583 H   0  0  0  0  0  0  0  0  0  0  0  0
   39.0264    5.4986   14.1928 H   0  0  0  0  0  0  0  0  0  0  0  0
   38.9547    6.0672   12.5368 H   0  0  0  0  0  0  0  0  0  0  0  0
   38.8301    8.4022   13.2391 H   0  0  0  0  0  0  0  0  0  0  0  0
   40.2207    7.6581   13.9873 H   0  0  0  0  0  0  0  0  0  0  0  0
   37.5379    3.3577   13.6228 H   0  0  0  0  0  0  0  0  0  0  0  0
   35.9425    3.5230   14.3622 H   0  0  0  0  0  0  0  0  0  0  0  0
   37.8730    2.0517   11.5447 H   0  0  0  0  0  0  0  0  0  0  0  0
   37.0063    0.2849   10.0316 H   0  0  0  0  0  0  0  0  0  0  0  0
   34.6033   -0.3590   10.1152 H   0  0  0  0  0  0  0  0  0  0  0  0
   33.0696    0.7624   11.7188 H   0  0  0  0  0  0  0  0  0  0  0  0
   33.9211    2.5326   13.2298 H   0  0  0  0  0  0  0  0  0  0  0  0
  1  2  2  0
  2  3  1  0
  2  4  1  0
  4  5  1  0
  4 38  1  0
  4 39  1  0
  5  6  1  0
  6 11  2  0
  6  7  1  0
  7  8  1  0
  7  9  2  0
  9 10  1  0
  9 15  1  0
 10 11  1  0
 11 12  1  0
 12 13  2  0
 12 14  1  0
 15 20  1  0
 15 16  2  0
 16 17  1  0
 16 40  1  0
 17 18  2  0
 17 41  1  0
 18 19  1  0
 18 42  1  0
 19 20  2  0
 19 21  1  0
 20 43  1  0
 21 22  1  0
 21 44  1  0
 22 27  1  0
 22 23  1  0
 22 45  1  0
 23 24  1  0
 23 46  1  0
 23 47  1  0
 24 25  1  0
 24 48  1  0
 24 49  1  0
 25 26  1  0
 25 28  1  0
 26 27  1  0
 26 50  1  0
 26 51  1  0
 27 52  1  0
 27 53  1  0
 28 29  2  0
 28 30  2  0
 28 31  1  0
 31 32  1  0
 31 54  1  0
 31 55  1  0
 32 37  1  0
 32 33  2  0
 33 34  1  0
 33 56  1  0
 34 35  2  0
 34 57  1  0
 35 36  1  0
 35 58  1  0
 36 37  2  0
 36 59  1  0
 37 60  1  0
M  CHG  2   3  -1  14  -1
M  END
>  <s_m_entry_id>  (1) 
470

>  <i_f3d_flags>  (1) 
0

>  <r_epik_Ionization_Penalty>  (1) 
  0.0004

>  <r_epik_State_Penalty>  (1) 
  0.0002

>  <i_epik_Tot_Q>  (1) 
-2

>  <s_m_job_name>  (1) 
glide-dock_SP_ptp1b_no_cons

>  <r_i_docking_score>  (1) 
-9.54194166612625

>  <r_i_glide_gscore>  (1) 
-9.54214166612625

>  <r_i_glide_emodel>  (1) 
-135.851188924783

>  <index_string>  (1) 
17:0:0

$$$$
