16:0:0
     RDKit          3D

 51 54  0  0  1  0  0  0  0  0999 V2000
   -6.9424   -0.4120   18.5815 C   0  0  0  0  0  0  0  0  0  0  0  0
   -5.9718   -1.1711   17.8174 N   0  0  0  0  0  0  0  0  0  0  0  0
   -6.2650   -1.9612   16.7783 C   0  0  0  0  0  0  0  0  0  0  0  0
   -7.3869   -2.0747   16.2853 O   0  0  0  0  0  0  0  0  0  0  0  0
   -5.0956   -2.7179   16.2379 C   0  0  0  0  0  0  0  0  0  0  0  0
   -5.1279   -4.1241   16.1422 C   0  0  0  0  0  0  0  0  0  0  0  0
   -3.9996   -4.8203   15.6696 C   0  0  0  0  0  0  0  0  0  0  0  0
   -2.8486   -4.1131   15.2664 C   0  0  0  0  0  0  0  0  0  0  0  0
   -2.8187   -2.7037   15.3153 C   0  0  0  0  0  0  0  0  0  0  0  0
   -3.9488   -2.0200   15.8127 C   0  0  0  0  0  0  0  0  0  0  0  0
   -1.6483   -1.9455   14.8480 C   0  0  0  0  0  0  0  0  0  0  0  0
   -0.3853   -2.1509   15.3462 C   0  0  0  0  0  0  0  0  0  0  0  0
    0.6198   -1.3936   14.8319 N   0  0  0  0  0  0  0  0  0  0  0  0
    1.9731   -1.3542   15.1086 C   0  0  0  0  0  0  0  0  0  0  0  0
    2.5185   -0.4345   14.2566 C   0  0  0  0  0  0  0  0  0  0  0  0
    1.5395    0.1376   13.4564 N   0  0  0  0  0  0  0  0  0  0  0  0
    0.3860   -0.4252   13.8243 C   0  0  0  0  0  0  0  0  0  0  0  0
   -0.9761   -0.2662   13.4153 C   0  0  0  0  0  0  0  0  0  0  0  0
   -1.3804    0.6296   12.4186 N   0  0  0  0  0  0  0  0  0  0  0  0
   -0.9502    1.9472   12.2058 C   0  0  0  0  0  0  0  0  0  0  0  0
   -0.2551    2.6936   13.1817 C   0  0  0  0  0  0  0  0  0  0  0  0
    0.1275    4.0234   12.9281 C   0  0  0  0  0  0  0  0  0  0  0  0
   -0.1821    4.6376   11.6899 C   0  0  0  0  0  0  0  0  0  0  0  0
    0.1382    5.9439   11.3810 O   0  0  0  0  0  0  0  0  0  0  0  0
    0.8886    6.6912   12.3286 C   0  0  0  0  0  0  0  0  0  0  0  0
   -0.8791    3.8852   10.7150 C   0  0  0  0  0  0  0  0  0  0  0  0
   -1.2174    4.4329    9.5060 O   0  0  0  0  0  0  0  0  0  0  0  0
   -0.1247    4.5790    8.6133 C   0  0  0  0  0  0  0  0  0  0  0  0
   -1.2707    2.5604   10.9822 C   0  0  0  0  0  0  0  0  0  0  0  0
   -1.9339   -1.0047   13.8878 N   0  0  0  0  0  0  0  0  0  0  0  0
   -6.4274    0.4039   19.0826 H   0  0  0  0  0  0  0  0  0  0  0  0
   -7.4115   -1.0435   19.3370 H   0  0  0  0  0  0  0  0  0  0  0  0
   -7.7247    0.0032   17.9494 H   0  0  0  0  0  0  0  0  0  0  0  0
   -5.0268   -1.1947   18.1870 H   0  0  0  0  0  0  0  0  0  0  0  0
   -6.0052   -4.6716   16.4560 H   0  0  0  0  0  0  0  0  0  0  0  0
   -4.0148   -5.8993   15.6194 H   0  0  0  0  0  0  0  0  0  0  0  0
   -1.9896   -4.6572   14.9011 H   0  0  0  0  0  0  0  0  0  0  0  0
   -3.9283   -0.9415   15.8678 H   0  0  0  0  0  0  0  0  0  0  0  0
   -0.1366   -2.8744   16.1194 H   0  0  0  0  0  0  0  0  0  0  0  0
    2.3959   -1.9944   15.8685 H   0  0  0  0  0  0  0  0  0  0  0  0
    3.5506   -0.1290   14.1602 H   0  0  0  0  0  0  0  0  0  0  0  0
   -2.1823    0.3317   11.8826 H   0  0  0  0  0  0  0  0  0  0  0  0
   -0.0154    2.2659   14.1432 H   0  0  0  0  0  0  0  0  0  0  0  0
    0.6503    4.5551   13.7095 H   0  0  0  0  0  0  0  0  0  0  0  0
    1.0785    7.6894   11.9352 H   0  0  0  0  0  0  0  0  0  0  0  0
    0.3408    6.8044   13.2664 H   0  0  0  0  0  0  0  0  0  0  0  0
    1.8557    6.2267   12.5308 H   0  0  0  0  0  0  0  0  0  0  0  0
   -0.4219    5.2187    7.7864 H   0  0  0  0  0  0  0  0  0  0  0  0
    0.7485    5.0347    9.0814 H   0  0  0  0  0  0  0  0  0  0  0  0
    0.1676    3.6123    8.2022 H   0  0  0  0  0  0  0  0  0  0  0  0
   -1.8114    2.0126   10.2270 H   0  0  0  0  0  0  0  0  0  0  0  0
  1  2  1  0
  1 31  1  0
  1 32  1  0
  1 33  1  0
  2  3  1  0
  2 34  1  0
  3  4  2  0
  3  5  1  0
  5  6  2  0
  5 10  1  0
  6  7  1  0
  6 35  1  0
  7  8  2  0
  7 36  1  0
  8  9  1  0
  8 37  1  0
  9 10  2  0
  9 11  1  0
 10 38  1  0
 11 12  2  0
 11 30  1  0
 12 13  1  0
 12 39  1  0
 13 14  1  0
 13 17  1  0
 14 15  2  0
 14 40  1  0
 15 16  1  0
 15 41  1  0
 16 17  2  0
 17 18  1  0
 18 19  1  0
 18 30  2  0
 19 20  1  0
 19 42  1  0
 20 21  2  0
 20 29  1  0
 21 22  1  0
 21 43  1  0
 22 23  2  0
 22 44  1  0
 23 24  1  0
 23 26  1  0
 24 25  1  0
 25 45  1  0
 25 46  1  0
 25 47  1  0
 26 27  1  0
 26 29  2  0
 27 28  1  0
 28 48  1  0
 28 49  1  0
 28 50  1  0
 29 51  1  0
M  END
>  <s_m_entry_id>  (1) 
696

>  <IC50[nM]>  (1) 
50.2

>  <s_m_Source_Path>  (1) 
/projects/mai/users/kmzp800_harry/pmx_colab/docking_jobs/syk

>  <s_m_Source_File>  (1) 
tnks2_lig.sdf

>  <i_m_Source_File_Index>  (1) 
17

>  <s_m_job_name>  (1) 
glide-dock_SP_tnks2_no_const

>  <r_i_docking_score>  (1) 
-6.69232444437279

>  <r_i_glide_gscore>  (1) 
-6.69232444437279

>  <r_i_glide_emodel>  (1) 
-67.0080588159617

>  <index_string>  (1) 
16:0:0

$$$$
