14:0:0
     RDKit          3D

 42 44  0  0  1  0  0  0  0  0999 V2000
   40.4000    9.5680   16.0120 C   0  0  0  0  0  0  0  0  0  0  0  0
   41.3830    8.7220   16.5440 C   0  0  0  0  0  0  0  0  0  0  0  0
   42.6580    9.2190   16.8240 C   0  0  0  0  0  0  0  0  0  0  0  0
   42.9550   10.5590   16.5700 C   0  0  0  0  0  0  0  0  0  0  0  0
   41.9870   11.4170   16.0260 C   0  0  0  0  0  0  0  0  0  0  0  0
   40.7090   10.9080   15.7590 C   0  0  0  0  0  0  0  0  0  0  0  0
   42.3200   12.8420   15.7870 C   0  0  0  0  0  0  0  0  0  0  0  0
   43.3900   13.7190   16.7480 S   0  0  0  0  0  0  0  0  0  0  0  0
   43.2740   15.1690   15.9160 C   0  0  0  0  0  0  0  0  0  0  0  0
   42.3790   15.0040   14.8610 C   0  0  0  0  0  0  0  0  0  0  0  0
   41.8510   13.6900   14.7690 C   0  0  0  0  0  0  0  0  0  0  0  0
   40.7680   13.0840   13.2990 Br  0  0  0  0  0  0  0  0  0  0  0  0
   43.9940   16.4000   16.2740 C   0  0  0  0  0  0  0  0  0  0  0  0
   44.1030   17.3340   15.4350 O   0  0  0  0  0  0  0  0  0  0  0  0
   44.5600   16.5490   17.5340 O   0  0  0  0  0  0  0  0  0  0  0  0
   42.0820   16.0650   13.9930 O   0  0  0  0  0  0  0  0  0  0  0  0
   40.9760   16.9430   14.1520 C   0  0  0  0  0  0  0  0  0  0  0  0
   40.3080   17.1690   12.8400 C   0  0  0  0  0  0  0  0  0  0  0  0
   39.0540   17.2400   12.7760 O   0  0  0  0  0  0  0  0  0  0  0  0
   41.0650   17.2570   11.6800 O   0  0  0  0  0  0  0  0  0  0  0  0
   39.0850    9.0880   15.7150 N   0  0  0  0  0  0  0  0  0  0  0  0
   38.6590    8.6580   14.3890 C   0  0  0  0  0  0  0  0  0  0  0  0
   39.2400    4.4330   13.9320 C   0  0  0  0  0  0  0  0  0  0  0  0
   38.9870    4.9700   15.1980 C   0  0  0  0  0  0  0  0  0  0  0  0
   38.7940    6.3460   15.3470 C   0  0  0  0  0  0  0  0  0  0  0  0
   38.8530    7.1880   14.2310 C   0  0  0  0  0  0  0  0  0  0  0  0
   39.1070    6.6480   12.9640 C   0  0  0  0  0  0  0  0  0  0  0  0
   39.3000    5.2720   12.8160 C   0  0  0  0  0  0  0  0  0  0  0  0
   41.1499    7.6652   16.7412 H   0  0  0  0  0  0  0  0  0  0  0  0
   43.4275    8.5548   17.2444 H   0  0  0  0  0  0  0  0  0  0  0  0
   43.9587   10.9466   16.7987 H   0  0  0  0  0  0  0  0  0  0  0  0
   39.9371   11.5728   15.3440 H   0  0  0  0  0  0  0  0  0  0  0  0
   40.2563   16.4977   14.8546 H   0  0  0  0  0  0  0  0  0  0  0  0
   41.3349   17.9063   14.5435 H   0  0  0  0  0  0  0  0  0  0  0  0
   38.3998    9.0438   16.4828 H   0  0  0  0  0  0  0  0  0  0  0  0
   37.5943    8.8994   14.2545 H   0  0  0  0  0  0  0  0  0  0  0  0
   39.2639    9.1806   13.6334 H   0  0  0  0  0  0  0  0  0  0  0  0
   39.3918    3.3499   13.8145 H   0  0  0  0  0  0  0  0  0  0  0  0
   38.9399    4.3095   16.0764 H   0  0  0  0  0  0  0  0  0  0  0  0
   38.5954    6.7679   16.3433 H   0  0  0  0  0  0  0  0  0  0  0  0
   39.1546    7.3074   12.0849 H   0  0  0  0  0  0  0  0  0  0  0  0
   39.4993    4.8489   11.8204 H   0  0  0  0  0  0  0  0  0  0  0  0
  1  2  2  0
  1  6  1  0
  1 21  1  0
  2  3  1  0
  2 29  1  0
  3  4  2  0
  3 30  1  0
  4  5  1  0
  4 31  1  0
  5  6  2  0
  5  7  1  0
  6 32  1  0
  7  8  1  0
  7 11  2  0
  8  9  1  0
  9 13  1  0
  9 10  2  0
 10 11  1  0
 10 16  1  0
 11 12  1  0
 13 15  1  0
 13 14  2  0
 16 17  1  0
 17 18  1  0
 17 33  1  0
 17 34  1  0
 18 19  1  0
 18 20  2  0
 21 22  1  0
 21 35  1  0
 22 26  1  0
 22 36  1  0
 22 37  1  0
 23 24  2  0
 23 28  1  0
 23 38  1  0
 24 25  1  0
 24 39  1  0
 25 26  2  0
 25 40  1  0
 26 27  1  0
 27 28  2  0
 27 41  1  0
 28 42  1  0
M  CHG  2  15  -1  19  -1
M  END
>  <s_m_entry_id>  (1) 
1231

>  <MODEL>  (1) 
10

>  <REMARK>  (1) 
 VINA RESULT:    -6.833      5.875      9.675
 INTER + INTRA:         -11.183
 INTER:                 -10.770
 INTRA:                  -0.413
 UNBOUND:                -1.155
  Name = /scratch/kmzp800/tmpmvs7blqo/tmpyvmkqd8_.pdb
  8 active torsions:
  status: ('A' for Active; 'I' for Inactive)
    1  A    between atoms: C4_4  and  C5_5
    2  A    between atoms: C5_5  and  N1_6
    3  A    between atoms: N1_6  and  C6_7
    4  A    between atoms: C10_11  and  C11_12
    5  A    between atoms: C12_14  and  C13_15
    6  A    between atoms: C14_18  and  O3_19
    7  A    between atoms: O3_19  and  C15_20
    8  A    between atoms: C15_20  and  C16_21
                            x       y       z     vdW  Elec       q    Type
                         _______ _______ _______ _____ _____    ______ ____

>  <TORSDO>  (1) 
F 8

>  <grid_id>  (1) 
ptp1b-prepared

>  <grid_path>  (1) 
ptp1b_vina.pdbqt

>  <grid_filename>  (1) 
ptp1b_vina.pdbqt

>  <docking_score>  (1) 
-6.833

>  <compound_name>  (1) 
lig_20669_2qbr

>  <index_string>  (1) 
14:0:0

>  <s_m_Source_Path>  (1) 
/projects/mai/users/kmzp800_harry/pmx_colab/docking_jobs/ptp1b

>  <s_m_Source_File>  (1) 
ptp1b_confs_vina_mcs.sdf

>  <i_m_Source_File_Index>  (1) 
15

$$$$
