3:0:0
     RDKit          3D

 57 60  0  0  1  0  0  0  0  0999 V2000
   39.6900   10.2390   17.2960 C   0  0  0  0  0  0  0  0  0  0  0  0
   39.8570    9.2330   16.3410 C   0  0  0  0  0  0  0  0  0  0  0  0
   40.6600    9.4580   15.2200 C   0  0  0  0  0  0  0  0  0  0  0  0
   41.2960   10.6890   15.0510 C   0  0  0  0  0  0  0  0  0  0  0  0
   41.1360   11.7150   15.9960 C   0  0  0  0  0  0  0  0  0  0  0  0
   40.3320   11.4720   17.1180 C   0  0  0  0  0  0  0  0  0  0  0  0
   41.8410   13.0060   15.8120 C   0  0  0  0  0  0  0  0  0  0  0  0
   42.9600   13.6170   16.9140 S   0  0  0  0  0  0  0  0  0  0  0  0
   43.3160   15.0290   16.0880 C   0  0  0  0  0  0  0  0  0  0  0  0
   42.5540   15.0650   14.9230 C   0  0  0  0  0  0  0  0  0  0  0  0
   41.7340   13.9210   14.7490 C   0  0  0  0  0  0  0  0  0  0  0  0
   40.7230   13.5810   13.1450 Br  0  0  0  0  0  0  0  0  0  0  0  0
   44.2670   16.0500   16.5570 C   0  0  0  0  0  0  0  0  0  0  0  0
   44.8890   16.7740   15.7360 O   0  0  0  0  0  0  0  0  0  0  0  0
   44.4830   16.2230   17.9180 O   0  0  0  0  0  0  0  0  0  0  0  0
   42.6430   16.1500   14.0370 O   0  0  0  0  0  0  0  0  0  0  0  0
   41.8080   17.2990   14.0900 C   0  0  0  0  0  0  0  0  0  0  0  0
   40.7230   17.1910   13.0740 C   0  0  0  0  0  0  0  0  0  0  0  0
   39.5270   17.0600   13.4410 O   0  0  0  0  0  0  0  0  0  0  0  0
   41.0280   17.2720   11.7220 O   0  0  0  0  0  0  0  0  0  0  0  0
   38.8640    9.9940   18.4380 N   0  0  0  0  0  0  0  0  0  0  0  0
   41.4950   10.2160   21.7880 N   0  0  0  0  0  0  0  0  0  0  0  0
   41.1120    8.8960   21.2670 C   0  0  0  0  0  0  0  0  0  0  0  0
   40.5410    8.9550   19.8510 C   0  0  0  0  0  0  0  0  0  0  0  0
   39.3760    9.9270   19.8000 C   0  0  0  0  0  0  0  0  0  0  0  0
   39.8590   11.3010   20.2400 C   0  0  0  0  0  0  0  0  0  0  0  0
   40.4330   11.2250   21.6540 C   0  0  0  0  0  0  0  0  0  0  0  0
   43.0110   10.7690   21.1230 S   0  0  0  0  0  0  0  0  0  0  0  0
   44.0550   10.7550   22.2050 O   0  0  0  0  0  0  0  0  0  0  0  0
   42.8490   12.1880   20.6510 O   0  0  0  0  0  0  0  0  0  0  0  0
   44.4840    8.2260   17.6370 C   0  0  0  0  0  0  0  0  0  0  0  0
   44.8060    7.8670   18.9490 C   0  0  0  0  0  0  0  0  0  0  0  0
   44.3550    8.6480   20.0170 C   0  0  0  0  0  0  0  0  0  0  0  0
   43.5770    9.7860   19.7780 C   0  0  0  0  0  0  0  0  0  0  0  0
   43.2640   10.1480   18.4620 C   0  0  0  0  0  0  0  0  0  0  0  0
   43.7140    9.3670   17.3930 C   0  0  0  0  0  0  0  0  0  0  0  0
   39.3557    8.2627   16.4718 H   0  0  0  0  0  0  0  0  0  0  0  0
   40.7911    8.6642   14.4698 H   0  0  0  0  0  0  0  0  0  0  0  0
   41.9296   10.8571   14.1676 H   0  0  0  0  0  0  0  0  0  0  0  0
   40.2027   12.2626   17.8718 H   0  0  0  0  0  0  0  0  0  0  0  0
   41.3614   17.3783   15.0921 H   0  0  0  0  0  0  0  0  0  0  0  0
   42.4123   18.1933   13.8777 H   0  0  0  0  0  0  0  0  0  0  0  0
   37.8539    9.8578   18.2893 H   0  0  0  0  0  0  0  0  0  0  0  0
   42.0027    8.2505   21.2590 H   0  0  0  0  0  0  0  0  0  0  0  0
   40.3232    8.4998   21.9233 H   0  0  0  0  0  0  0  0  0  0  0  0
   41.3251    9.2897   19.1559 H   0  0  0  0  0  0  0  0  0  0  0  0
   40.1883    7.9539   19.5623 H   0  0  0  0  0  0  0  0  0  0  0  0
   38.5725    9.5887   20.4708 H   0  0  0  0  0  0  0  0  0  0  0  0
   40.6393   11.6515   19.5484 H   0  0  0  0  0  0  0  0  0  0  0  0
   39.0110   12.0016   20.2317 H   0  0  0  0  0  0  0  0  0  0  0  0
   39.6193   10.9725   22.3498 H   0  0  0  0  0  0  0  0  0  0  0  0
   40.8782   12.2046   21.8823 H   0  0  0  0  0  0  0  0  0  0  0  0
   44.8366    7.6105   16.7963 H   0  0  0  0  0  0  0  0  0  0  0  0
   45.4139    6.9705   19.1409 H   0  0  0  0  0  0  0  0  0  0  0  0
   44.6126    8.3669   21.0488 H   0  0  0  0  0  0  0  0  0  0  0  0
   42.6628   11.0487   18.2688 H   0  0  0  0  0  0  0  0  0  0  0  0
   43.4622    9.6503   16.3604 H   0  0  0  0  0  0  0  0  0  0  0  0
  1 21  1  0
  1  2  2  0
  1  6  1  0
  2  3  1  0
  2 37  1  0
  3  4  2  0
  3 38  1  0
  4  5  1  0
  4 39  1  0
  5  6  2  0
  5  7  1  0
  6 40  1  0
  7  8  1  0
  7 11  2  0
  8  9  1  0
  9 13  1  0
  9 10  2  0
 10 11  1  0
 10 16  1  0
 11 12  1  0
 13 15  1  0
 13 14  2  0
 16 17  1  0
 17 18  1  0
 17 41  1  0
 17 42  1  0
 18 19  1  0
 18 20  2  0
 21 25  1  0
 21 43  1  0
 22 23  1  0
 22 27  1  0
 22 28  1  0
 23 24  1  0
 23 44  1  0
 23 45  1  0
 24 25  1  0
 24 46  1  0
 24 47  1  0
 25 26  1  0
 25 48  1  0
 26 27  1  0
 26 49  1  0
 26 50  1  0
 27 51  1  0
 27 52  1  0
 28 29  2  0
 28 30  2  0
 28 34  1  0
 31 32  2  0
 31 36  1  0
 31 53  1  0
 32 33  1  0
 32 54  1  0
 33 34  2  0
 33 55  1  0
 34 35  1  0
 35 36  2  0
 35 56  1  0
 36 57  1  0
M  CHG  2  15  -1  19  -1
M  END
>  <s_m_entry_id>  (1) 
1349

>  <MODEL>  (1) 
1

>  <REMARK>  (1) 
 VINA RESULT:    -7.600      0.000      0.000
 INTER + INTRA:         -13.037
 INTER:                 -11.599
 INTRA:                  -1.437
 UNBOUND:                -1.437
  Name = /scratch/kmzp800/tmpb8zwws8_/tmp9hfqpph3.pdb
  9 active torsions:
  status: ('A' for Active; 'I' for Inactive)
    1  A    between atoms: C4_4  and  S1_5
    2  A    between atoms: S1_5  and  N1_8
    3  A    between atoms: C7_11  and  N2_12
    4  A    between atoms: N2_12  and  C8_13
    5  A    between atoms: C12_17  and  C13_18
    6  A    between atoms: C14_20  and  C15_21
    7  A    between atoms: C16_24  and  O5_25
    8  A    between atoms: O5_25  and  C17_26
    9  A    between atoms: C17_26  and  C18_27
                            x       y       z     vdW  Elec       q    Type
                         _______ _______ _______ _____ _____    ______ ____

>  <TORSDO>  (1) 
F 9

>  <grid_id>  (1) 
ptp1b-prepared

>  <grid_path>  (1) 
ptp1b_vina.pdbqt

>  <grid_filename>  (1) 
ptp1b_vina.pdbqt

>  <docking_score>  (1) 
-7.6

>  <compound_name>  (1) 
lig_23483

>  <index_string>  (1) 
3:0:0

>  <s_m_Source_Path>  (1) 
/projects/mai/users/kmzp800_harry/pmx_colab/docking_jobs/ptp1b/vina_prep

>  <s_m_Source_File>  (1) 
ptp1b_vina_naive_confs.sdf

>  <i_m_Source_File_Index>  (1) 
4

$$$$
