0:0:0
     RDKit          3D

 47 49  0  0  1  0  0  0  0  0999 V2000
  -14.7630  -19.1720  -25.8460 C   0  0  0  0  0  0  0  0  0  0  0  0
  -14.9940  -19.8560  -27.0460 C   0  0  0  0  0  0  0  0  0  0  0  0
  -14.2240  -19.8780  -24.7630 C   0  0  0  0  0  0  0  0  0  0  0  0
  -14.6970  -21.2100  -27.1480 C   0  0  0  0  0  0  0  0  0  0  0  0
  -13.9090  -21.2270  -24.8770 C   0  0  0  0  0  0  0  0  0  0  0  0
  -14.1280  -21.9110  -26.0740 C   0  0  0  0  0  0  0  0  0  0  0  0
  -14.7580  -16.8450  -26.5660 N   0  0  0  0  0  0  0  0  0  0  0  0
  -15.0400  -15.4760  -26.4030 C   0  0  0  0  0  0  0  0  0  0  0  0
  -15.7600  -15.0340  -25.2830 C   0  0  0  0  0  0  0  0  0  0  0  0
  -15.6040  -12.7590  -26.0740 C   0  0  0  0  0  0  0  0  0  0  0  0
  -14.8880  -13.1940  -27.1830 C   0  0  0  0  0  0  0  0  0  0  0  0
  -16.0430  -13.6740  -25.1140 C   0  0  0  0  0  0  0  0  0  0  0  0
  -14.6060  -14.5470  -27.3640 C   0  0  0  0  0  0  0  0  0  0  0  0
  -16.2170  -16.0610  -24.2690 C   0  0  0  0  0  0  0  0  0  0  0  0
  -15.8370  -17.3210  -24.6070 N   0  0  0  0  0  0  0  0  0  0  0  0
  -15.1080  -17.7390  -25.7030 C   0  0  0  0  0  0  0  0  0  0  0  0
  -16.8760  -15.8430  -23.2530 O   0  0  0  0  0  0  0  0  0  0  0  0
  -13.8290  -14.9710  -28.5970 C   0  0  0  0  0  0  0  0  0  0  0  0
  -15.8830  -11.4410  -25.9620 F   0  0  0  0  0  0  0  0  0  0  0  0
  -13.7910  -23.4150  -26.2060 C   0  0  0  0  0  0  0  0  0  0  0  0
  -15.0650  -24.1700  -26.6280 C   0  0  0  0  0  0  0  0  0  0  0  0
  -13.2250  -23.8870  -24.8630 C   0  0  0  0  0  0  0  0  0  0  0  0
  -12.7410  -23.5980  -27.1820 O   0  0  0  0  0  0  0  0  0  0  0  0
  -12.3490  -24.9050  -27.6410 C   0  0  0  0  0  0  0  0  0  0  0  0
  -11.1070  -24.9900  -28.5550 C   0  0  0  0  0  0  0  0  0  0  0  0
  -11.0170  -23.8950  -29.4330 O   0  0  0  0  0  0  0  0  0  0  0  0
  -15.4119  -19.3199  -27.9108 H   0  0  0  0  0  0  0  0  0  0  0  0
  -14.0477  -19.3581  -23.8098 H   0  0  0  0  0  0  0  0  0  0  0  0
  -14.9118  -21.7412  -28.0870 H   0  0  0  0  0  0  0  0  0  0  0  0
  -13.4827  -21.7611  -24.0150 H   0  0  0  0  0  0  0  0  0  0  0  0
  -14.5398  -12.4620  -27.9266 H   0  0  0  0  0  0  0  0  0  0  0  0
  -16.6055  -13.3289  -24.2340 H   0  0  0  0  0  0  0  0  0  0  0  0
  -16.1324  -18.0646  -23.9584 H   0  0  0  0  0  0  0  0  0  0  0  0
  -12.9018  -15.4770  -28.2901 H   0  0  0  0  0  0  0  0  0  0  0  0
  -14.4413  -15.6601  -29.1973 H   0  0  0  0  0  0  0  0  0  0  0  0
  -13.5808  -14.0833  -29.1973 H   0  0  0  0  0  0  0  0  0  0  0  0
  -15.6129  -24.4947  -25.7311 H   0  0  0  0  0  0  0  0  0  0  0  0
  -15.7040  -23.5047  -27.2272 H   0  0  0  0  0  0  0  0  0  0  0  0
  -14.7882  -25.0500  -27.2272 H   0  0  0  0  0  0  0  0  0  0  0  0
  -13.7878  -23.4177  -24.0426 H   0  0  0  0  0  0  0  0  0  0  0  0
  -13.3156  -24.9809  -24.7910 H   0  0  0  0  0  0  0  0  0  0  0  0
  -12.1652  -23.6013  -24.7910 H   0  0  0  0  0  0  0  0  0  0  0  0
  -12.1483  -25.5212  -26.7522 H   0  0  0  0  0  0  0  0  0  0  0  0
  -13.1856  -25.2477  -28.2676 H   0  0  0  0  0  0  0  0  0  0  0  0
  -10.2051  -25.0144  -27.9257 H   0  0  0  0  0  0  0  0  0  0  0  0
  -11.1966  -25.9029  -29.1621 H   0  0  0  0  0  0  0  0  0  0  0  0
  -10.9482  -23.0573  -28.9099 H   0  0  0  0  0  0  0  0  0  0  0  0
  1 16  1  0
  1  3  1  0
  1  2  2  0
  2  4  1  0
  3  5  2  0
  4  6  2  0
  5  6  1  0
  6 20  1  0
  7  8  1  0
  7 16  2  0
  8  9  2  0
  8 13  1  0
  9 12  1  0
  9 14  1  0
 10 19  1  0
 10 12  2  0
 10 11  1  0
 11 13  2  0
 13 18  1  0
 14 17  2  0
 14 15  1  0
 15 16  1  0
 20 22  1  0
 20 21  1  0
 20 23  1  0
 23 24  1  0
 24 25  1  0
 25 26  1  0
  2 27  1  0
  3 28  1  0
  4 29  1  0
  5 30  1  0
 11 31  1  0
 12 32  1  0
 15 33  1  0
 18 34  1  0
 18 35  1  0
 18 36  1  0
 21 37  1  0
 21 38  1  0
 21 39  1  0
 22 40  1  0
 22 41  1  0
 22 42  1  0
 24 43  1  0
 24 44  1  0
 25 45  1  0
 25 46  1  0
 26 47  1  0
M  END
>  <s_m_entry_id>  (1) 
2384

>  <MODEL>  (1) 
2

>  <REMARK>  (1) 
 VINA RESULT:    -9.855      1.310      1.942
 INTER + INTRA:         -13.818
 INTER:                 -13.265
 INTRA:                  -0.553
 UNBOUND:                -0.795
  Name = 5o
  9 active torsions:
  status: ('A' for Active; 'I' for Inactive)
    1  A    between atoms: C_1  and  C_17
    2  A    between atoms: C_7  and  C_8
    3  A    between atoms: C_8  and  C_19
    4  A    between atoms: C_8  and  O_20
    5  A    between atoms: C_8  and  C_21
    6  A    between atoms: C_14  and  C_22
    7  A    between atoms: O_20  and  C_24
    8  A    between atoms: C_24  and  C_25
    9  A    between atoms: C_25  and  O_26
                            x       y       z     vdW  Elec       q    Type
                         _______ _______ _______ _____ _____    ______ ____

>  <TORSDO>  (1) 
F 6

>  <s_m_Source_Path>  (1) 
/projects/mai/users/kmzp800_harry/pmx_colab/docking_jobs/tnks2/vina_prep/output_mcs

>  <s_m_Source_File>  (1) 
tnks_mcs_vina__all_poses.sdf

>  <i_m_Source_File_Index>  (1) 
2

>  <index_string>  (1) 
0:0:0

$$$$
