7:0:0
     RDKit          3D

 58 63  0  0  1  0  0  0  0  0999 V2000
   -7.7368   -4.2119   13.4344 C   0  0  0  0  0  0  0  0  0  0  0  0
   -6.5555   -3.2336   13.5230 C   0  0  0  0  0  0  0  0  0  0  0  0
   -7.0264   -1.9952   13.0245 O   0  0  0  0  0  0  0  0  0  0  0  0
   -6.0846   -3.0712   14.9890 C   0  0  0  0  0  0  0  0  0  0  0  0
   -4.7906   -2.2457   15.1293 C   0  0  0  0  0  0  0  0  0  0  0  0
   -3.7645   -2.7368   14.2171 N   0  0  0  0  0  0  0  0  0  0  0  0
   -4.1480   -2.7959   12.8119 C   0  0  0  0  0  0  0  0  0  0  0  0
   -5.3821   -3.6934   12.6335 C   0  0  0  0  0  0  0  0  0  0  0  0
   -2.4628   -2.3000   14.4989 C   0  0  0  0  0  0  0  0  0  0  0  0
   -1.7054   -2.9831   15.4701 C   0  0  0  0  0  0  0  0  0  0  0  0
   -0.3704   -2.6137   15.7194 C   0  0  0  0  0  0  0  0  0  0  0  0
    0.2300   -1.5502   15.0129 C   0  0  0  0  0  0  0  0  0  0  0  0
    1.5747   -1.2775   15.3151 N   0  0  0  0  0  0  0  0  0  0  0  0
    2.5268   -0.4270   14.7287 C   0  0  0  0  0  0  0  0  0  0  0  0
    2.2043    0.3758   13.7509 N   0  0  0  0  0  0  0  0  0  0  0  0
    3.1299    1.2674   13.2459 C   0  0  0  0  0  0  0  0  0  0  0  0
    4.4339    1.2946   13.6860 C   0  0  0  0  0  0  0  0  0  0  0  0
    4.7655    0.4780   14.7177 N   0  0  0  0  0  0  0  0  0  0  0  0
    5.9153    0.3711   15.4715 C   0  0  0  0  0  0  0  0  0  0  0  0
    5.6114   -0.5062   16.4788 C   0  0  0  0  0  0  0  0  0  0  0  0
    4.3577   -1.0618   16.3216 N   0  0  0  0  0  0  0  0  0  0  0  0
    3.8309   -0.4158   15.2874 C   0  0  0  0  0  0  0  0  0  0  0  0
    2.6419    2.2492   12.2438 C   0  0  0  0  0  0  0  0  0  0  0  0
    3.5154    2.8038   11.2723 C   0  0  0  0  0  0  0  0  0  0  0  0
    3.0617    3.7241   10.3049 C   0  0  0  0  0  0  0  0  0  0  0  0
    1.7135    4.1400   10.2861 C   0  0  0  0  0  0  0  0  0  0  0  0
    0.8904    5.0118    9.5015 C   0  0  0  0  0  0  0  0  0  0  0  0
   -0.3477    5.0311    9.9366 N   0  0  0  0  0  0  0  0  0  0  0  0
   -0.3692    4.1941   11.0045 N   0  0  0  0  0  0  0  0  0  0  0  0
    0.8516    3.6037   11.2780 C   0  0  0  0  0  0  0  0  0  0  0  0
    1.2950    2.6812   12.2417 C   0  0  0  0  0  0  0  0  0  0  0  0
   -0.5505   -0.8362   14.0724 C   0  0  0  0  0  0  0  0  0  0  0  0
   -1.8830   -1.2087   13.8176 C   0  0  0  0  0  0  0  0  0  0  0  0
   -7.4576   -5.2010   13.8000 H   0  0  0  0  0  0  0  0  0  0  0  0
   -8.0852   -4.3314   12.4078 H   0  0  0  0  0  0  0  0  0  0  0  0
   -8.5818   -3.8707   14.0345 H   0  0  0  0  0  0  0  0  0  0  0  0
   -7.4744   -2.1677   12.2081 H   0  0  0  0  0  0  0  0  0  0  0  0
   -6.8750   -2.6304   15.5986 H   0  0  0  0  0  0  0  0  0  0  0  0
   -5.8975   -4.0601   15.4108 H   0  0  0  0  0  0  0  0  0  0  0  0
   -4.9892   -1.1965   14.9123 H   0  0  0  0  0  0  0  0  0  0  0  0
   -4.4320   -2.2913   16.1592 H   0  0  0  0  0  0  0  0  0  0  0  0
   -4.3567   -1.7940   12.4383 H   0  0  0  0  0  0  0  0  0  0  0  0
   -3.3211   -3.1883   12.2201 H   0  0  0  0  0  0  0  0  0  0  0  0
   -5.1095   -4.7169   12.8963 H   0  0  0  0  0  0  0  0  0  0  0  0
   -5.6756   -3.7150   11.5835 H   0  0  0  0  0  0  0  0  0  0  0  0
   -2.1360   -3.8132   16.0113 H   0  0  0  0  0  0  0  0  0  0  0  0
    0.1953   -3.1662   16.4567 H   0  0  0  0  0  0  0  0  0  0  0  0
    1.9666   -1.8437   16.0571 H   0  0  0  0  0  0  0  0  0  0  0  0
    5.1879    1.9951   13.3451 H   0  0  0  0  0  0  0  0  0  0  0  0
    6.7739    0.9922   15.2639 H   0  0  0  0  0  0  0  0  0  0  0  0
    6.1419   -0.7460   17.3741 H   0  0  0  0  0  0  0  0  0  0  0  0
    4.5513    2.5003   11.2399 H   0  0  0  0  0  0  0  0  0  0  0  0
    3.7489    4.1130    9.5689 H   0  0  0  0  0  0  0  0  0  0  0  0
    1.1657    5.6149    8.6489 H   0  0  0  0  0  0  0  0  0  0  0  0
   -1.2246    4.0523   11.5213 H   0  0  0  0  0  0  0  0  0  0  0  0
    0.6010    2.3038   12.9779 H   0  0  0  0  0  0  0  0  0  0  0  0
   -0.1604   -0.0018   13.5163 H   0  0  0  0  0  0  0  0  0  0  0  0
   -2.4438   -0.6606   13.0762 H   0  0  0  0  0  0  0  0  0  0  0  0
  1  2  1  0
  1 34  1  0
  1 35  1  0
  1 36  1  0
  2  3  1  0
  2  4  1  0
  2  8  1  0
  3 37  1  0
  4  5  1  0
  4 38  1  0
  4 39  1  0
  5  6  1  0
  5 40  1  0
  5 41  1  0
  6  7  1  0
  6  9  1  0
  7  8  1  0
  7 42  1  0
  7 43  1  0
  8 44  1  0
  8 45  1  0
  9 10  2  0
  9 33  1  0
 10 11  1  0
 10 46  1  0
 11 12  2  0
 11 47  1  0
 12 13  1  0
 12 32  1  0
 13 14  1  0
 13 48  1  0
 14 15  2  0
 14 22  1  0
 15 16  1  0
 16 17  2  0
 16 23  1  0
 17 18  1  0
 17 49  1  0
 18 19  1  0
 18 22  1  0
 19 20  2  0
 19 50  1  0
 20 21  1  0
 20 51  1  0
 21 22  2  0
 23 24  2  0
 23 31  1  0
 24 25  1  0
 24 52  1  0
 25 26  2  0
 25 53  1  0
 26 27  1  0
 26 30  1  0
 27 28  2  0
 27 54  1  0
 28 29  1  0
 29 30  1  0
 29 55  1  0
 30 31  2  0
 31 56  1  0
 32 33  2  0
 32 57  1  0
 33 58  1  0
M  END
>  <s_m_entry_id>  (1) 
995

>  <IC50[nM]>  (1) 
1.4

>  <s_m_Source_Path>  (1) 
/projects/mai/users/kmzp800_harry/pmx_colab/docking_jobs/syk

>  <s_m_Source_File>  (1) 
tnks2_lig.sdf

>  <i_m_Source_File_Index>  (1) 
8

>  <s_m_job_name>  (1) 
glide-dock_SP_tnks2_core_const

>  <r_i_docking_score>  (1) 
-7.31344498553998

>  <r_i_glide_gscore>  (1) 
-7.31344498553998

>  <r_i_glide_emodel>  (1) 
-50.4277325594219

>  <index_string>  (1) 
7:0:0

$$$$
