5:0:0
     RDKit          3D

 45 48  0  0  1  0  0  0  0  0999 V2000
  -14.4920  -14.8240  -27.4280 C   0  0  0  0  0  0  0  0  0  0  0  0
  -14.9820  -15.6750  -26.4250 C   0  0  0  0  0  0  0  0  0  0  0  0
  -14.6350  -13.4430  -27.2940 C   0  0  0  0  0  0  0  0  0  0  0  0
  -15.6580  -15.1270  -25.3220 C   0  0  0  0  0  0  0  0  0  0  0  0
  -14.7850  -17.0670  -26.5260 N   0  0  0  0  0  0  0  0  0  0  0  0
  -15.2780  -12.9040  -26.1810 C   0  0  0  0  0  0  0  0  0  0  0  0
  -15.8060  -13.7410  -25.1950 C   0  0  0  0  0  0  0  0  0  0  0  0
  -16.2190  -16.0740  -24.2820 C   0  0  0  0  0  0  0  0  0  0  0  0
  -15.9630  -17.3780  -24.5870 N   0  0  0  0  0  0  0  0  0  0  0  0
  -16.8590  -15.7520  -23.2780 O   0  0  0  0  0  0  0  0  0  0  0  0
  -15.2390  -17.9010  -25.6480 C   0  0  0  0  0  0  0  0  0  0  0  0
  -13.8680  -15.3060  -28.5240 F   0  0  0  0  0  0  0  0  0  0  0  0
  -15.3900  -11.5610  -26.0720 F   0  0  0  0  0  0  0  0  0  0  0  0
  -15.0460  -19.3730  -25.7560 C   0  0  0  0  0  0  0  0  0  0  0  0
  -14.7600  -19.9500  -27.0030 C   0  0  0  0  0  0  0  0  0  0  0  0
  -14.6070  -21.3270  -27.1360 C   0  0  0  0  0  0  0  0  0  0  0  0
  -14.7200  -22.1700  -26.0250 C   0  0  0  0  0  0  0  0  0  0  0  0
  -14.9810  -21.5970  -24.7750 C   0  0  0  0  0  0  0  0  0  0  0  0
  -15.1510  -20.2190  -24.6410 C   0  0  0  0  0  0  0  0  0  0  0  0
  -14.6710  -23.6840  -26.1700 C   0  0  0  0  0  0  0  0  0  0  0  0
  -15.7950  -24.1730  -27.0920 C   0  0  0  0  0  0  0  0  0  0  0  0
  -15.6830  -25.6870  -27.3420 C   0  0  0  0  0  0  0  0  0  0  0  0
  -14.3760  -26.0010  -27.9300 N   0  0  0  0  0  0  0  0  0  0  0  0
  -13.2990  -25.6440  -26.9990 C   0  0  0  0  0  0  0  0  0  0  0  0
  -13.3150  -24.1280  -26.7360 C   0  0  0  0  0  0  0  0  0  0  0  0
  -14.3090  -27.4430  -28.2140 C   0  0  0  0  0  0  0  0  0  0  0  0
  -14.2376  -12.7747  -28.0721 H   0  0  0  0  0  0  0  0  0  0  0  0
  -16.3325  -13.3153  -24.3280 H   0  0  0  0  0  0  0  0  0  0  0  0
  -16.3631  -18.0715  -23.9390 H   0  0  0  0  0  0  0  0  0  0  0  0
  -14.6553  -19.3048  -27.8878 H   0  0  0  0  0  0  0  0  0  0  0  0
  -14.3948  -21.7574  -28.1258 H   0  0  0  0  0  0  0  0  0  0  0  0
  -15.0530  -22.2417  -23.8867 H   0  0  0  0  0  0  0  0  0  0  0  0
  -15.3696  -19.7910  -23.6515 H   0  0  0  0  0  0  0  0  0  0  0  0
  -14.8061  -24.1256  -25.1716 H   0  0  0  0  0  0  0  0  0  0  0  0
  -16.7657  -23.9568  -26.6219 H   0  0  0  0  0  0  0  0  0  0  0  0
  -15.7094  -23.6511  -28.0565 H   0  0  0  0  0  0  0  0  0  0  0  0
  -15.7919  -26.2232  -26.3877 H   0  0  0  0  0  0  0  0  0  0  0  0
  -16.4768  -25.9989  -28.0367 H   0  0  0  0  0  0  0  0  0  0  0  0
  -13.4447  -26.1804  -26.0498 H   0  0  0  0  0  0  0  0  0  0  0  0
  -12.3312  -25.9248  -27.4401 H   0  0  0  0  0  0  0  0  0  0  0  0
  -13.1278  -23.5967  -27.6808 H   0  0  0  0  0  0  0  0  0  0  0  0
  -12.5326  -23.8909  -26.0000 H   0  0  0  0  0  0  0  0  0  0  0  0
  -14.2830  -28.0024  -27.2672 H   0  0  0  0  0  0  0  0  0  0  0  0
  -15.1941  -27.7441  -28.7936 H   0  0  0  0  0  0  0  0  0  0  0  0
  -13.3998  -27.6607  -28.7936 H   0  0  0  0  0  0  0  0  0  0  0  0
  1  3  2  0
  1  2  1  0
  1 12  1  0
  2  4  2  0
  2  5  1  0
  3  6  1  0
  4  7  1  0
  4  8  1  0
  5 11  2  0
  6 13  1  0
  6  7  2  0
  8 10  2  0
  8  9  1  0
  9 11  1  0
 11 14  1  0
 14 19  1  0
 14 15  2  0
 15 16  1  0
 16 17  2  0
 17 18  1  0
 17 20  1  0
 18 19  2  0
 20 21  1  0
 20 25  1  0
 21 22  1  0
 22 23  1  0
 23 24  1  0
 23 26  1  0
 24 25  1  0
  3 27  1  0
  7 28  1  0
  9 29  1  0
 15 30  1  0
 16 31  1  0
 18 32  1  0
 19 33  1  0
 20 34  1  0
 21 35  1  0
 21 36  1  0
 22 37  1  0
 22 38  1  0
 24 39  1  0
 24 40  1  0
 25 41  1  0
 25 42  1  0
 26 43  1  0
 26 44  1  0
 26 45  1  0
M  END
>  <s_m_entry_id>  (1) 
2333

>  <MODEL>  (1) 
1

>  <REMARK>  (1) 
 VINA RESULT:   -12.524      0.000      0.000
 INTER + INTRA:         -14.486
 INTER:                 -13.989
 INTRA:                  -0.497
 UNBOUND:                -0.497
  Name = 8e
  3 active torsions:
  status: ('A' for Active; 'I' for Inactive)
    1  A    between atoms: C_11  and  C_12
    2  A    between atoms: C_15  and  C_20
    3  A    between atoms: N_23  and  C_26
                            x       y       z     vdW  Elec       q    Type
                         _______ _______ _______ _____ _____    ______ ____

>  <TORSDO>  (1) 
F 2

>  <s_m_Source_Path>  (1) 
/projects/mai/users/kmzp800_harry/pmx_colab/docking_jobs/tnks2/vina_prep/output

>  <s_m_Source_File>  (1) 
tnks_naive_vina.sdf

>  <i_m_Source_File_Index>  (1) 
6

>  <index_string>  (1) 
5:0:0

$$$$
