24:0:0
     RDKit          3D

 43 46  0  0  1  0  0  0  0  0999 V2000
  -14.4120  -14.8758  -27.7153 C   0  0  0  0  0  0  0  0  0  0  0  0
  -15.0192  -15.6375  -26.7031 C   0  0  0  0  0  0  0  0  0  0  0  0
  -14.4985  -13.4870  -27.6852 C   0  0  0  0  0  0  0  0  0  0  0  0
  -15.7522  -15.0233  -25.6634 C   0  0  0  0  0  0  0  0  0  0  0  0
  -14.8460  -17.0246  -26.7528 N   0  0  0  0  0  0  0  0  0  0  0  0
  -15.2419  -12.8622  -26.6791 C   0  0  0  0  0  0  0  0  0  0  0  0
  -15.8761  -13.6114  -25.6531 C   0  0  0  0  0  0  0  0  0  0  0  0
  -16.3517  -15.9416  -24.6274 C   0  0  0  0  0  0  0  0  0  0  0  0
  -16.1147  -17.2434  -24.8121 N   0  0  0  0  0  0  0  0  0  0  0  0
  -17.0155  -15.5727  -23.6728 O   0  0  0  0  0  0  0  0  0  0  0  0
  -15.3642  -17.7918  -25.8442 C   0  0  0  0  0  0  0  0  0  0  0  0
  -15.2000  -19.2639  -25.9280 C   0  0  0  0  0  0  0  0  0  0  0  0
  -14.7808  -19.8424  -27.1363 C   0  0  0  0  0  0  0  0  0  0  0  0
  -14.5656  -21.2172  -27.2204 C   0  0  0  0  0  0  0  0  0  0  0  0
  -14.7821  -22.0566  -26.1134 C   0  0  0  0  0  0  0  0  0  0  0  0
  -15.2350  -21.4863  -24.9072 C   0  0  0  0  0  0  0  0  0  0  0  0
  -15.4425  -20.0962  -24.8172 C   0  0  0  0  0  0  0  0  0  0  0  0
  -13.6973  -15.4687  -28.6992 F   0  0  0  0  0  0  0  0  0  0  0  0
  -15.2854  -11.5206  -26.7386 F   0  0  0  0  0  0  0  0  0  0  0  0
  -14.5201  -23.5495  -26.2218 C   0  0  0  0  0  0  0  0  0  0  0  0
  -15.5237  -24.2284  -27.1763 C   0  0  0  0  0  0  0  0  0  0  0  0
  -15.2045  -25.7161  -27.3896 C   0  0  0  0  0  0  0  0  0  0  0  0
  -13.8021  -25.9055  -27.8249 N   0  0  0  0  0  0  0  0  0  0  0  0
  -12.8112  -25.3288  -26.8880 C   0  0  0  0  0  0  0  0  0  0  0  0
  -13.0716  -23.8333  -26.6690 C   0  0  0  0  0  0  0  0  0  0  0  0
  -14.0154  -12.8930  -28.4472 H   0  0  0  0  0  0  0  0  0  0  0  0
  -16.4347  -13.1117  -24.8731 H   0  0  0  0  0  0  0  0  0  0  0  0
  -16.5593  -17.8725  -24.1570 H   0  0  0  0  0  0  0  0  0  0  0  0
  -14.5839  -19.2353  -28.0083 H   0  0  0  0  0  0  0  0  0  0  0  0
  -14.2013  -21.5727  -28.1634 H   0  0  0  0  0  0  0  0  0  0  0  0
  -15.4142  -22.1061  -24.0424 H   0  0  0  0  0  0  0  0  0  0  0  0
  -15.7707  -19.6820  -23.8758 H   0  0  0  0  0  0  0  0  0  0  0  0
  -14.6503  -23.9727  -25.2256 H   0  0  0  0  0  0  0  0  0  0  0  0
  -16.5385  -24.1189  -26.7912 H   0  0  0  0  0  0  0  0  0  0  0  0
  -15.5131  -23.7298  -28.1447 H   0  0  0  0  0  0  0  0  0  0  0  0
  -15.3864  -26.2729  -26.4716 H   0  0  0  0  0  0  0  0  0  0  0  0
  -15.8679  -26.1390  -28.1457 H   0  0  0  0  0  0  0  0  0  0  0  0
  -13.6209  -26.8959  -27.9224 H   0  0  0  0  0  0  0  0  0  0  0  0
  -12.8482  -25.8609  -25.9386 H   0  0  0  0  0  0  0  0  0  0  0  0
  -11.8082  -25.4765  -27.2891 H   0  0  0  0  0  0  0  0  0  0  0  0
  -12.8482  -23.3068  -27.5960 H   0  0  0  0  0  0  0  0  0  0  0  0
  -12.3757  -23.4427  -25.9258 H   0  0  0  0  0  0  0  0  0  0  0  0
  -13.6843  -25.4651  -28.7270 H   0  0  0  0  0  0  0  0  0  0  0  0
  1  2  2  0
  1  3  1  0
  1 18  1  0
  2  4  1  0
  2  5  1  0
  3  6  2  0
  3 26  1  0
  4  7  2  0
  4  8  1  0
  5 11  2  0
  6  7  1  0
  6 19  1  0
  7 27  1  0
  8  9  1  0
  8 10  2  0
  9 11  1  0
  9 28  1  0
 11 12  1  0
 12 13  2  0
 12 17  1  0
 13 14  1  0
 13 29  1  0
 14 15  2  0
 14 30  1  0
 15 16  1  0
 15 20  1  0
 16 17  2  0
 16 31  1  0
 17 32  1  0
 20 21  1  0
 20 25  1  0
 20 33  1  0
 21 22  1  0
 21 34  1  0
 21 35  1  0
 22 23  1  0
 22 36  1  0
 22 37  1  0
 23 24  1  0
 23 38  1  0
 23 43  1  0
 24 25  1  0
 24 39  1  0
 24 40  1  0
 25 41  1  0
 25 42  1  0
M  CHG  1  23   1
M  END
>  <s_m_entry_id>  (1) 
466

>  <Name>  (1) 
8c

>  <IC50[nM]>  (1) 
38

>  <s_m_Source_Path>  (1) 
/projects/mai/users/kmzp800_harry/pmx_colab/docking_jobs/tnks2

>  <s_m_Source_File>  (1) 
tnks2_lig.sdf

>  <i_m_Source_File_Index>  (1) 
25

>  <s_m_job_name>  (1) 
glide-dock_SP_tnks2_core_const

>  <r_i_docking_score>  (1) 
-10.5990038344776

>  <r_i_glide_gscore>  (1) 
-10.5990038344776

>  <r_i_glide_emodel>  (1) 
-49.6211351791318

>  <index_string>  (1) 
24:0:0

$$$$
