8:0:0
     RDKit          3D

 48 51  0  0  1  0  0  0  0  0999 V2000
    5.7250   -0.5470   16.4740 C   0  0  0  0  0  0  0  0  0  0  0  0
    4.4420   -0.9580   16.3090 N   0  0  0  0  0  0  0  0  0  0  0  0
    4.0180   -0.2540   15.2460 C   0  0  0  0  0  0  0  0  0  0  0  0
    2.7560   -0.3060   14.6600 C   0  0  0  0  0  0  0  0  0  0  0  0
    1.7440   -1.1760   15.1860 N   0  0  0  0  0  0  0  0  0  0  0  0
    2.5270    0.4970   13.5790 N   0  0  0  0  0  0  0  0  0  0  0  0
    3.4870    1.3320   13.0700 C   0  0  0  0  0  0  0  0  0  0  0  0
    4.7560    1.3640   13.6820 C   0  0  0  0  0  0  0  0  0  0  0  0
    4.9560    0.5580   14.7530 N   0  0  0  0  0  0  0  0  0  0  0  0
    6.0520    0.4000   15.5060 C   0  0  0  0  0  0  0  0  0  0  0  0
    0.4060   -1.3420   14.6970 C   0  0  0  0  0  0  0  0  0  0  0  0
   -0.3180   -2.5250   14.8940 C   0  0  0  0  0  0  0  0  0  0  0  0
   -1.6190   -2.6480   14.4010 C   0  0  0  0  0  0  0  0  0  0  0  0
   -2.2180   -1.5870   13.7040 C   0  0  0  0  0  0  0  0  0  0  0  0
   -1.4990   -0.3980   13.5030 C   0  0  0  0  0  0  0  0  0  0  0  0
   -0.1910   -0.2860   14.0020 C   0  0  0  0  0  0  0  0  0  0  0  0
   -3.5200   -1.6920   13.2030 O   0  0  0  0  0  0  0  0  0  0  0  0
   -4.1220   -2.9380   12.8790 C   0  0  0  0  0  0  0  0  0  0  0  0
   -2.1020    0.6550   12.8050 O   0  0  0  0  0  0  0  0  0  0  0  0
   -1.5750    1.1740   11.5920 C   0  0  0  0  0  0  0  0  0  0  0  0
    3.1860    2.1790   11.8980 C   0  0  0  0  0  0  0  0  0  0  0  0
    4.1830    2.4470   10.9480 C   0  0  0  0  0  0  0  0  0  0  0  0
    3.9060    3.2460    9.8360 C   0  0  0  0  0  0  0  0  0  0  0  0
    2.6300    3.7860    9.6650 C   0  0  0  0  0  0  0  0  0  0  0  0
    1.6200    3.5310   10.6030 C   0  0  0  0  0  0  0  0  0  0  0  0
    1.9050    2.7280   11.7150 C   0  0  0  0  0  0  0  0  0  0  0  0
    0.2730    4.0990   10.4220 C   0  0  0  0  0  0  0  0  0  0  0  0
   -0.3230    4.6450   11.3880 O   0  0  0  0  0  0  0  0  0  0  0  0
   -0.3710    4.0380    9.1520 N   0  0  0  0  0  0  0  0  0  0  0  0
    6.4070   -0.9088   17.2576 H   0  0  0  0  0  0  0  0  0  0  0  0
    2.0070   -1.7435   16.0043 H   0  0  0  0  0  0  0  0  0  0  0  0
    5.5549    2.0191   13.3043 H   0  0  0  0  0  0  0  0  0  0  0  0
    7.0166    0.9145   15.3846 H   0  0  0  0  0  0  0  0  0  0  0  0
    0.1410   -3.3622   15.4403 H   0  0  0  0  0  0  0  0  0  0  0  0
   -2.1777   -3.5821   14.5599 H   0  0  0  0  0  0  0  0  0  0  0  0
    0.3717    0.6458   13.8438 H   0  0  0  0  0  0  0  0  0  0  0  0
   -4.3802   -3.4723   13.8052 H   0  0  0  0  0  0  0  0  0  0  0  0
   -5.0346   -2.7623   12.2905 H   0  0  0  0  0  0  0  0  0  0  0  0
   -3.4172   -3.5437   12.2905 H   0  0  0  0  0  0  0  0  0  0  0  0
   -0.8081    1.9293   11.8189 H   0  0  0  0  0  0  0  0  0  0  0  0
   -1.1242    0.3574   11.0090 H   0  0  0  0  0  0  0  0  0  0  0  0
   -2.3846    1.6372   11.0090 H   0  0  0  0  0  0  0  0  0  0  0  0
    5.1902    2.0249   11.0797 H   0  0  0  0  0  0  0  0  0  0  0  0
    4.6932    3.4496    9.0952 H   0  0  0  0  0  0  0  0  0  0  0  0
    2.4158    4.4155    8.7887 H   0  0  0  0  0  0  0  0  0  0  0  0
    1.1163    2.5245   12.4543 H   0  0  0  0  0  0  0  0  0  0  0  0
   -1.3130    4.4372    9.0325 H   0  0  0  0  0  0  0  0  0  0  0  0
    0.1055    3.5947    8.3537 H   0  0  0  0  0  0  0  0  0  0  0  0
  1  2  1  0
  1 10  2  0
  2  3  2  0
  3  4  1  0
  3  9  1  0
  4  5  1  0
  4  6  2  0
  5 11  1  0
  6  7  1  0
  7  8  2  0
  7 21  1  0
  8  9  1  0
  9 10  1  0
 11 12  2  0
 11 16  1  0
 12 13  1  0
 13 14  2  0
 14 15  1  0
 14 17  1  0
 15 16  2  0
 15 19  1  0
 17 18  1  0
 19 20  1  0
 21 22  2  0
 21 26  1  0
 22 23  1  0
 23 24  2  0
 24 25  1  0
 25 26  2  0
 25 27  1  0
 27 28  2  0
 27 29  1  0
  1 30  1  0
  5 31  1  0
  8 32  1  0
 10 33  1  0
 12 34  1  0
 13 35  1  0
 16 36  1  0
 18 37  1  0
 18 38  1  0
 18 39  1  0
 20 40  1  0
 20 41  1  0
 20 42  1  0
 22 43  1  0
 23 44  1  0
 24 45  1  0
 26 46  1  0
 29 47  1  0
 29 48  1  0
M  END
>  <s_m_entry_id>  (1) 
397

>  <MODEL>  (1) 
1

>  <REMARK>  (1) 
 VINA RESULT:    -9.644      0.000      0.000
 INTER + INTRA:         -12.949
 INTER:                 -12.429
 INTRA:                  -0.519
 UNBOUND:                -0.485
  Name = /scratch/kmzp800/tmpsjqvihye/tmp_0a4ufgv.pdb
  7 active torsions:
  status: ('A' for Active; 'I' for Inactive)
    1  A    between atoms: N2_5  and  C4_6
    2  A    between atoms: C7_9  and  O1_10
    3  A    between atoms: O1_10  and  C8_11
    4  A    between atoms: C9_12  and  O2_13
    5  A    between atoms: O2_13  and  C10_14
    6  A    between atoms: C12_17  and  C13_18
    7  A    between atoms: C17_22  and  C18_23
                            x       y       z     vdW  Elec       q    Type
                         _______ _______ _______ _____ _____    ______ ____

>  <TORSDO>  (1) 
F 5

>  <grid_id>  (1) 
syk-prepared

>  <grid_path>  (1) 
syk_vina.pdbqt

>  <grid_filename>  (1) 
syk_vina.pdbqt

>  <docking_score>  (1) 
-9.644

>  <compound_name>  (1) 
CHEMBL3265005

>  <index_string>  (1) 
8:0:0

>  <s_m_Source_Path>  (1) 
/projects/mai/users/kmzp800_harry/pmx_colab/docking_jobs/syk/vina_prep/output

>  <s_m_Source_File>  (1) 
ptp1b_docked_conformers.sdf

>  <i_m_Source_File_Index>  (1) 
221

$$$$
