23:0:0
     RDKit          3D

 51 54  0  0  1  0  0  0  0  0999 V2000
   -4.5531   -3.3216   15.2010 C   0  0  0  0  0  0  0  0  0  0  0  0
   -3.9145   -2.2768   14.4728 O   0  0  0  0  0  0  0  0  0  0  0  0
   -2.5599   -2.0861   14.6607 C   0  0  0  0  0  0  0  0  0  0  0  0
   -1.7443   -2.9497   15.4292 C   0  0  0  0  0  0  0  0  0  0  0  0
   -0.3760   -2.6781   15.6035 C   0  0  0  0  0  0  0  0  0  0  0  0
    0.2144   -1.5464   15.0022 C   0  0  0  0  0  0  0  0  0  0  0  0
    1.5786   -1.3228   15.2712 N   0  0  0  0  0  0  0  0  0  0  0  0
    2.5243   -0.4374   14.7282 C   0  0  0  0  0  0  0  0  0  0  0  0
    2.1975    0.3630   13.7447 N   0  0  0  0  0  0  0  0  0  0  0  0
    3.1042    1.2786   13.2395 C   0  0  0  0  0  0  0  0  0  0  0  0
    4.4050    1.3236   13.7052 C   0  0  0  0  0  0  0  0  0  0  0  0
    4.7531    0.4895   14.7188 N   0  0  0  0  0  0  0  0  0  0  0  0
    5.9063    0.3760   15.4728 C   0  0  0  0  0  0  0  0  0  0  0  0
    5.6054   -0.5022   16.4843 C   0  0  0  0  0  0  0  0  0  0  0  0
    4.3520   -1.0434   16.3326 N   0  0  0  0  0  0  0  0  0  0  0  0
    3.8238   -0.4138   15.2874 C   0  0  0  0  0  0  0  0  0  0  0  0
    2.5465    2.2344   12.2226 C   0  0  0  0  0  0  0  0  0  0  0  0
    1.1780    2.6089   12.3195 C   0  0  0  0  0  0  0  0  0  0  0  0
    0.5455    3.4206   11.3589 C   0  0  0  0  0  0  0  0  0  0  0  0
    1.2727    3.9079   10.2534 C   0  0  0  0  0  0  0  0  0  0  0  0
    2.6489    3.6309   10.1841 C   0  0  0  0  0  0  0  0  0  0  0  0
    3.2813    2.8041   11.1381 C   0  0  0  0  0  0  0  0  0  0  0  0
    4.7560    2.5462   10.9057 C   0  0  0  0  0  0  0  0  0  0  0  0
    0.6199    4.7179    9.1685 C   0  0  0  0  0  0  0  0  0  0  0  0
    1.1771    5.7003    8.6833 O   0  0  0  0  0  0  0  0  0  0  0  0
   -0.5512    4.2676    8.7104 N   0  0  0  0  0  0  0  0  0  0  0  0
   -0.5977   -0.6990   14.2158 C   0  0  0  0  0  0  0  0  0  0  0  0
   -1.9818   -0.9581   14.0403 C   0  0  0  0  0  0  0  0  0  0  0  0
   -2.8198   -0.1411   13.3104 O   0  0  0  0  0  0  0  0  0  0  0  0
   -2.2360    0.8712   12.5046 C   0  0  0  0  0  0  0  0  0  0  0  0
   -5.6193   -3.3186   14.9768 H   0  0  0  0  0  0  0  0  0  0  0  0
   -4.1642   -4.2969   14.9060 H   0  0  0  0  0  0  0  0  0  0  0  0
   -4.4355   -3.1951   16.2796 H   0  0  0  0  0  0  0  0  0  0  0  0
   -2.1512   -3.8201   15.9249 H   0  0  0  0  0  0  0  0  0  0  0  0
    0.2164   -3.3389   16.2221 H   0  0  0  0  0  0  0  0  0  0  0  0
    1.9775   -1.9195   15.9840 H   0  0  0  0  0  0  0  0  0  0  0  0
    5.1464    2.0453   13.3984 H   0  0  0  0  0  0  0  0  0  0  0  0
    6.7674    0.9989   15.2700 H   0  0  0  0  0  0  0  0  0  0  0  0
    6.1348   -0.7518   17.3786 H   0  0  0  0  0  0  0  0  0  0  0  0
    0.5815    2.2466   13.1430 H   0  0  0  0  0  0  0  0  0  0  0  0
   -0.5040    3.6475   11.4643 H   0  0  0  0  0  0  0  0  0  0  0  0
    3.2174    4.0368    9.3576 H   0  0  0  0  0  0  0  0  0  0  0  0
    5.3521    3.1900   11.5542 H   0  0  0  0  0  0  0  0  0  0  0  0
    5.0316    1.5042   11.0632 H   0  0  0  0  0  0  0  0  0  0  0  0
    5.0121    2.8036    9.8812 H   0  0  0  0  0  0  0  0  0  0  0  0
   -1.0160    4.7590    7.9586 H   0  0  0  0  0  0  0  0  0  0  0  0
   -0.9652    3.4405    9.1188 H   0  0  0  0  0  0  0  0  0  0  0  0
   -0.1826    0.1860   13.7711 H   0  0  0  0  0  0  0  0  0  0  0  0
   -3.0056    1.3223   11.8791 H   0  0  0  0  0  0  0  0  0  0  0  0
   -1.8034    1.6667   13.1127 H   0  0  0  0  0  0  0  0  0  0  0  0
   -1.4792    0.4630   11.8285 H   0  0  0  0  0  0  0  0  0  0  0  0
  1  2  1  0
  1 31  1  0
  1 32  1  0
  1 33  1  0
  2  3  1  0
  3  4  2  0
  3 28  1  0
  4  5  1  0
  4 34  1  0
  5  6  2  0
  5 35  1  0
  6  7  1  0
  6 27  1  0
  7  8  1  0
  7 36  1  0
  8  9  2  0
  8 16  1  0
  9 10  1  0
 10 11  2  0
 10 17  1  0
 11 12  1  0
 11 37  1  0
 12 13  1  0
 12 16  1  0
 13 14  2  0
 13 38  1  0
 14 15  1  0
 14 39  1  0
 15 16  2  0
 17 18  2  0
 17 22  1  0
 18 19  1  0
 18 40  1  0
 19 20  2  0
 19 41  1  0
 20 21  1  0
 20 24  1  0
 21 22  2  0
 21 42  1  0
 22 23  1  0
 23 43  1  0
 23 44  1  0
 23 45  1  0
 24 25  2  0
 24 26  1  0
 26 46  1  0
 26 47  1  0
 27 28  2  0
 27 48  1  0
 28 29  1  0
 29 30  1  0
 30 49  1  0
 30 50  1  0
 30 51  1  0
M  END
>  <s_m_entry_id>  (1) 
1011

>  <IC50[nM]>  (1) 
113

>  <s_m_Source_Path>  (1) 
/projects/mai/users/kmzp800_harry/pmx_colab/docking_jobs/syk

>  <s_m_Source_File>  (1) 
tnks2_lig.sdf

>  <i_m_Source_File_Index>  (1) 
24

>  <s_m_job_name>  (1) 
glide-dock_SP_tnks2_core_const

>  <r_i_docking_score>  (1) 
-7.63728664680017

>  <r_i_glide_gscore>  (1) 
-7.63728664680017

>  <r_i_glide_emodel>  (1) 
-49.7460024738058

>  <index_string>  (1) 
23:0:0

$$$$
