25:0:0
     RDKit          3D

 64 68  0  0  1  0  0  0  0  0999 V2000
   34.2230   35.8880   20.9200 C   0  0  0  0  0  0  0  0  0  0  0  0
   35.1680   36.6760   21.5830 C   0  0  0  0  0  0  0  0  0  0  0  0
   35.0250   36.9410   22.9370 C   0  0  0  0  0  0  0  0  0  0  0  0
   35.9550   37.7200   23.6210 C   0  0  0  0  0  0  0  0  0  0  0  0
   35.7870   37.9620   24.9460 N   0  0  0  0  0  0  0  0  0  0  0  0
   34.7210   37.4550   25.6230 C   0  0  0  0  0  0  0  0  0  0  0  0
   34.5490   37.7160   27.0170 N   0  0  0  0  0  0  0  0  0  0  0  0
   33.8030   36.6960   24.9680 N   0  0  0  0  0  0  0  0  0  0  0  0
   33.9240   36.4200   23.6390 C   0  0  0  0  0  0  0  0  0  0  0  0
   32.9900   35.6520   22.9840 N   0  0  0  0  0  0  0  0  0  0  0  0
   33.1290   35.3860   21.6440 C   0  0  0  0  0  0  0  0  0  0  0  0
   32.2690   34.6840   21.0440 O   0  0  0  0  0  0  0  0  0  0  0  0
   35.4990   38.4920   27.7990 C   0  0  0  0  0  0  0  0  0  0  0  0
   35.4700   38.0410   29.2610 C   0  0  0  0  0  0  0  0  0  0  0  0
   36.3020   39.0140   30.0960 C   0  0  0  0  0  0  0  0  0  0  0  0
   35.7660   40.3110   29.9980 O   0  0  0  0  0  0  0  0  0  0  0  0
   36.0180   40.7570   28.6860 C   0  0  0  0  0  0  0  0  0  0  0  0
   35.1550   39.9750   27.6950 C   0  0  0  0  0  0  0  0  0  0  0  0
   31.8280   35.0860   23.6880 C   0  0  0  0  0  0  0  0  0  0  0  0
   32.1650   33.7590   24.3830 C   0  0  0  0  0  0  0  0  0  0  0  0
   32.1500   33.9140   25.9020 C   0  0  0  0  0  0  0  0  0  0  0  0
   30.8420   34.3710   26.3990 N   0  0  0  0  0  0  0  0  0  0  0  0
   30.1950   35.3990   25.5580 C   0  0  0  0  0  0  0  0  0  0  0  0
   31.1600   36.1110   24.6080 C   0  0  0  0  0  0  0  0  0  0  0  0
   31.0900   35.0540   27.9750 S   0  0  0  0  0  0  0  0  0  0  0  0
   30.2630   34.3090   28.9840 O   0  0  0  0  0  0  0  0  0  0  0  0
   30.6900   36.5050   27.9800 O   0  0  0  0  0  0  0  0  0  0  0  0
   32.8050   34.9190   28.4290 C   0  0  0  0  0  0  0  0  0  0  0  0
   34.3150   35.6060   19.5450 O   0  0  0  0  0  0  0  0  0  0  0  0
   37.8330   36.0990   18.3940 C   0  0  0  0  0  0  0  0  0  0  0  0
   36.7310   35.9850   19.2440 C   0  0  0  0  0  0  0  0  0  0  0  0
   35.4470   35.7450   18.7240 C   0  0  0  0  0  0  0  0  0  0  0  0
   35.2910   35.6070   17.3360 C   0  0  0  0  0  0  0  0  0  0  0  0
   34.0670   35.3640   16.8100 F   0  0  0  0  0  0  0  0  0  0  0  0
   36.3950   35.7220   16.4860 C   0  0  0  0  0  0  0  0  0  0  0  0
   37.6650   35.9690   17.0130 C   0  0  0  0  0  0  0  0  0  0  0  0
   38.7320   36.0800   16.1860 F   0  0  0  0  0  0  0  0  0  0  0  0
   36.0260   37.0864   21.0304 H   0  0  0  0  0  0  0  0  0  0  0  0
   36.8227   38.1377   23.0893 H   0  0  0  0  0  0  0  0  0  0  0  0
   33.7154   37.3380   27.4893 H   0  0  0  0  0  0  0  0  0  0  0  0
   36.5127   38.3297   27.4040 H   0  0  0  0  0  0  0  0  0  0  0  0
   34.4321   38.0359   29.6253 H   0  0  0  0  0  0  0  0  0  0  0  0
   35.8863   37.0264   29.3463 H   0  0  0  0  0  0  0  0  0  0  0  0
   36.2904   38.6934   31.1482 H   0  0  0  0  0  0  0  0  0  0  0  0
   37.3357   39.0207   29.7198 H   0  0  0  0  0  0  0  0  0  0  0  0
   35.7780   41.8280   28.6125 H   0  0  0  0  0  0  0  0  0  0  0  0
   37.0796   40.5963   28.4468 H   0  0  0  0  0  0  0  0  0  0  0  0
   35.3545   40.3291   26.6728 H   0  0  0  0  0  0  0  0  0  0  0  0
   34.0908   40.1269   27.9284 H   0  0  0  0  0  0  0  0  0  0  0  0
   31.0724   34.8354   22.9288 H   0  0  0  0  0  0  0  0  0  0  0  0
   31.4217   33.0022   24.0919 H   0  0  0  0  0  0  0  0  0  0  0  0
   33.1741   33.4493   24.0736 H   0  0  0  0  0  0  0  0  0  0  0  0
   32.3835   32.9416   26.3601 H   0  0  0  0  0  0  0  0  0  0  0  0
   32.8991   34.6727   26.1725 H   0  0  0  0  0  0  0  0  0  0  0  0
   29.4110   34.9141   24.9579 H   0  0  0  0  0  0  0  0  0  0  0  0
   29.7899   36.1630   26.2378 H   0  0  0  0  0  0  0  0  0  0  0  0
   31.9306   36.6338   25.1936 H   0  0  0  0  0  0  0  0  0  0  0  0
   30.6022   36.8380   23.9994 H   0  0  0  0  0  0  0  0  0  0  0  0
   32.8946   34.9119   29.5253 H   0  0  0  0  0  0  0  0  0  0  0  0
   33.2199   33.9854   28.0212 H   0  0  0  0  0  0  0  0  0  0  0  0
   33.3608   35.7762   28.0212 H   0  0  0  0  0  0  0  0  0  0  0  0
   38.8325   36.2910   18.8113 H   0  0  0  0  0  0  0  0  0  0  0  0
   36.8688   36.0839   20.3308 H   0  0  0  0  0  0  0  0  0  0  0  0
   36.2632   35.6177   15.3989 H   0  0  0  0  0  0  0  0  0  0  0  0
  1  2  2  0
  1 11  1  0
  1 29  1  0
  2  3  1  0
  2 38  1  0
  3  4  2  0
  3  9  1  0
  4  5  1  0
  4 39  1  0
  5  6  2  0
  6  7  1  0
  6  8  1  0
  7 13  1  0
  7 40  1  0
  8  9  2  0
  9 10  1  0
 10 19  1  0
 10 11  1  0
 11 12  2  0
 13 14  1  0
 13 18  1  0
 13 41  1  0
 14 15  1  0
 14 42  1  0
 14 43  1  0
 15 16  1  0
 15 44  1  0
 15 45  1  0
 16 17  1  0
 17 18  1  0
 17 46  1  0
 17 47  1  0
 18 48  1  0
 18 49  1  0
 19 20  1  0
 19 24  1  0
 19 50  1  0
 20 21  1  0
 20 51  1  0
 20 52  1  0
 21 22  1  0
 21 53  1  0
 21 54  1  0
 22 25  1  0
 22 23  1  0
 23 24  1  0
 23 55  1  0
 23 56  1  0
 24 57  1  0
 24 58  1  0
 25 27  2  0
 25 28  1  0
 25 26  2  0
 28 59  1  0
 28 60  1  0
 28 61  1  0
 29 32  1  0
 30 31  2  0
 30 36  1  0
 30 62  1  0
 31 32  1  0
 31 63  1  0
 32 33  2  0
 33 34  1  0
 33 35  1  0
 35 36  2  0
 35 64  1  0
 36 37  1  0
M  END
>  <s_m_entry_id>  (1) 
1380

>  <MODEL>  (1) 
1

>  <REMARK>  (1) 
 VINA RESULT:    -9.014      0.000      0.000
 INTER + INTRA:         -11.616
 INTER:                 -11.649
 INTRA:                   0.033
 UNBOUND:                 0.033
  Name = /scratch/kmzp800/tmptuzzckce/tmpvushrhwd.pdb
  6 active torsions:
  status: ('A' for Active; 'I' for Inactive)
    1  A    between atoms: C3_3  and  O1_4
    2  A    between atoms: O1_4  and  C4_5
    3  A    between atoms: N2_11  and  C9_12
    4  A    between atoms: N4_20  and  C15_21
    5  A    between atoms: N5_24  and  S1_25
    6  A    between atoms: S1_25  and  C18_28
                            x       y       z     vdW  Elec       q    Type
                         _______ _______ _______ _____ _____    ______ ____

>  <TORSDO>  (1) 
F 5

>  <grid_id>  (1) 
p38-prepared

>  <grid_path>  (1) 
/projects/mai/users/kmzp800_harry/pmx_colab/docking_jobs/p38/vina_docking/input_files/p38_vina.pdbqt

>  <grid_filename>  (1) 
p38_vina.pdbqt

>  <docking_score>  (1) 
-9.014

>  <compound_name>  (1) 
lig_p38a_2u

>  <index_string>  (1) 
25:0:0

>  <s_m_Source_Path>  (1) 
/projects/mai/users/kmzp800_harry/pmx_colab/docking_jobs/p38

>  <s_m_Source_File>  (1) 
p38_confs_vina_naive.sdf

>  <i_m_Source_File_Index>  (1) 
27

$$$$
