17:0:0
     RDKit          3D

 43 45  0  0  1  0  0  0  0  0999 V2000
   32.6990   34.7330   14.3879 F   0  0  0  0  0  0  0  0  0  0  0  0
   33.4413   34.9164   15.5189 C   0  0  0  0  0  0  0  0  0  0  0  0
   34.8418   34.9326   15.4892 C   0  0  0  0  0  0  0  0  0  0  0  0
   35.5829   35.1487   16.6526 C   0  0  0  0  0  0  0  0  0  0  0  0
   36.9364   35.2156   16.5822 F   0  0  0  0  0  0  0  0  0  0  0  0
   34.9308   35.2493   17.8946 C   0  0  0  0  0  0  0  0  0  0  0  0
   33.5282   35.2622   17.9172 C   0  0  0  0  0  0  0  0  0  0  0  0
   32.8042   35.1502   16.7299 C   0  0  0  0  0  0  0  0  0  0  0  0
   35.6884   35.2445   19.0460 O   0  0  0  0  0  0  0  0  0  0  0  0
   35.1677   35.8287   20.1391 C   0  0  0  0  0  0  0  0  0  0  0  0
   35.2485   37.1671   20.2617 C   0  0  0  0  0  0  0  0  0  0  0  0
   34.5532   35.0070   21.1789 C   0  0  0  0  0  0  0  0  0  0  0  0
   34.3263   33.8073   20.9666 O   0  0  0  0  0  0  0  0  0  0  0  0
   34.2219   35.6275   22.3457 N   0  0  0  0  0  0  0  0  0  0  0  0
   33.7160   34.8277   23.4739 C   0  0  0  0  0  0  0  0  0  0  0  0
   34.3083   37.0432   22.5319 C   0  0  0  0  0  0  0  0  0  0  0  0
   34.8063   37.8234   21.4761 C   0  0  0  0  0  0  0  0  0  0  0  0
   33.9207   37.6355   23.6813 N   0  0  0  0  0  0  0  0  0  0  0  0
   34.0074   38.9532   23.7659 C   0  0  0  0  0  0  0  0  0  0  0  0
   34.4685   39.7874   22.8286 N   0  0  0  0  0  0  0  0  0  0  0  0
   34.8506   39.2235   21.6662 C   0  0  0  0  0  0  0  0  0  0  0  0
   33.5977   39.5491   24.9484 N   0  0  0  0  0  0  0  0  0  0  0  0
   32.9343   38.9170   26.0625 C   0  0  0  0  0  0  0  0  0  0  0  0
   31.5134   38.4483   25.6595 C   0  0  0  0  0  0  0  0  0  0  0  0
   30.9508   37.5881   26.6259 O   0  0  0  0  0  0  0  0  0  0  0  0
   32.9141   39.9119   27.2446 C   0  0  0  0  0  0  0  0  0  0  0  0
   32.5785   39.3129   28.4740 O   0  0  0  0  0  0  0  0  0  0  0  0
   35.3613   34.7493   14.5774 H   0  0  0  0  0  0  0  0  0  0  0  0
   32.9682   35.3134   18.8485 H   0  0  0  0  0  0  0  0  0  0  0  0
   31.7200   35.1495   16.7601 H   0  0  0  0  0  0  0  0  0  0  0  0
   35.7336   37.7738   19.5072 H   0  0  0  0  0  0  0  0  0  0  0  0
   33.6403   33.7505   23.2820 H   0  0  0  0  0  0  0  0  0  0  0  0
   34.3679   34.9533   24.3384 H   0  0  0  0  0  0  0  0  0  0  0  0
   32.7205   35.1765   23.7517 H   0  0  0  0  0  0  0  0  0  0  0  0
   35.2161   39.8872   20.9016 H   0  0  0  0  0  0  0  0  0  0  0  0
   33.7480   40.5528   25.0083 H   0  0  0  0  0  0  0  0  0  0  0  0
   33.5357   38.0378   26.3437 H   0  0  0  0  0  0  0  0  0  0  0  0
   31.5413   37.8907   24.7192 H   0  0  0  0  0  0  0  0  0  0  0  0
   30.8554   39.3038   25.5011 H   0  0  0  0  0  0  0  0  0  0  0  0
   30.1067   37.2883   26.3285 H   0  0  0  0  0  0  0  0  0  0  0  0
   33.9097   40.3421   27.3741 H   0  0  0  0  0  0  0  0  0  0  0  0
   32.2235   40.7348   27.0424 H   0  0  0  0  0  0  0  0  0  0  0  0
   32.4902   39.9918   29.1254 H   0  0  0  0  0  0  0  0  0  0  0  0
  1  2  1  0
  2  8  2  0
  2  3  1  0
  3  4  2  0
  3 28  1  0
  4  5  1  0
  4  6  1  0
  6  7  2  0
  6  9  1  0
  7  8  1  0
  7 29  1  0
  8 30  1  0
  9 10  1  0
 10 11  2  0
 10 12  1  0
 11 17  1  0
 11 31  1  0
 12 13  2  0
 12 14  1  0
 14 15  1  0
 14 16  1  0
 15 32  1  0
 15 33  1  0
 15 34  1  0
 16 17  2  0
 16 18  1  0
 17 21  1  0
 18 19  2  0
 19 20  1  0
 19 22  1  0
 20 21  2  0
 21 35  1  0
 22 23  1  0
 22 36  1  0
 23 24  1  0
 23 26  1  0
 23 37  1  0
 24 25  1  0
 24 38  1  0
 24 39  1  0
 25 40  1  0
 26 27  1  0
 26 41  1  0
 26 42  1  0
 27 43  1  0
M  END
>  <s_m_entry_id>  (1) 
283

>  <i_f3d_flags>  (1) 
0

>  <r_lp_tautomer_probability>  (1) 
1

>  <r_epik_Ionization_Penalty>  (1) 
  0.0000

>  <r_epik_State_Penalty>  (1) 
  0.0000

>  <i_epik_Tot_Q>  (1) 
0

>  <s_m_job_name>  (1) 
glide-dock_SP_p38_core_cons_top_1

>  <r_i_docking_score>  (1) 
-6.16213567826618

>  <r_i_glide_gscore>  (1) 
-6.16213567826618

>  <r_i_glide_emodel>  (1) 
-40.0720538433517

>  <index_string>  (1) 
17:0:0

$$$$
