5:0:0
     RDKit          3D

 46 49  0  0  1  0  0  0  0  0999 V2000
   34.3989   35.1677   21.1321 C   0  0  0  0  0  0  0  0  0  0  0  0
   33.9510   39.0237   23.9195 C   0  0  0  0  0  0  0  0  0  0  0  0
   34.5136   38.0068   21.5040 C   0  0  0  0  0  0  0  0  0  0  0  0
   34.8352   37.4071   20.2200 C   0  0  0  0  0  0  0  0  0  0  0  0
   34.1532   37.1601   22.5699 C   0  0  0  0  0  0  0  0  0  0  0  0
   34.5560   39.3922   21.7549 C   0  0  0  0  0  0  0  0  0  0  0  0
   34.7783   36.0707   20.0424 C   0  0  0  0  0  0  0  0  0  0  0  0
   33.7501   34.8894   23.4858 C   0  0  0  0  0  0  0  0  0  0  0  0
   34.2811   39.9023   22.9746 N   0  0  0  0  0  0  0  0  0  0  0  0
   34.3738   33.9494   20.9613 O   0  0  0  0  0  0  0  0  0  0  0  0
   34.1063   35.7429   22.3375 N   0  0  0  0  0  0  0  0  0  0  0  0
   33.8745   37.7022   23.7742 N   0  0  0  0  0  0  0  0  0  0  0  0
   33.6840   39.5491   25.1660 N   0  0  0  0  0  0  0  0  0  0  0  0
   35.1051   38.0691   19.4108 H   0  0  0  0  0  0  0  0  0  0  0  0
   34.8277   40.0904   20.9787 H   0  0  0  0  0  0  0  0  0  0  0  0
   34.5108   34.9821   24.2630 H   0  0  0  0  0  0  0  0  0  0  0  0
   32.7999   35.2138   23.9102 H   0  0  0  0  0  0  0  0  0  0  0  0
   33.6400   33.8261   23.2632 H   0  0  0  0  0  0  0  0  0  0  0  0
   33.7512   40.5566   25.2645 H   0  0  0  0  0  0  0  0  0  0  0  0
   33.2575   38.4061   28.7651 C   0  0  0  0  0  0  0  0  0  0  0  0
   33.8411   39.2204   27.6021 C   0  0  0  0  0  0  0  0  0  0  0  0
   33.1630   38.7907   26.2978 C   0  0  0  0  0  0  0  0  0  0  0  0
   31.6398   38.9377   26.4390 C   0  0  0  0  0  0  0  0  0  0  0  0
   31.1466   38.1820   27.6878 C   0  0  0  0  0  0  0  0  0  0  0  0
   31.8527   38.6297   28.8411 O   0  0  0  0  0  0  0  0  0  0  0  0
   33.4660   37.3419   28.6448 H   0  0  0  0  0  0  0  0  0  0  0  0
   33.7155   38.7176   29.7050 H   0  0  0  0  0  0  0  0  0  0  0  0
   34.9205   39.0689   27.5459 H   0  0  0  0  0  0  0  0  0  0  0  0
   33.6837   40.2831   27.7836 H   0  0  0  0  0  0  0  0  0  0  0  0
   33.3785   37.7302   26.1644 H   0  0  0  0  0  0  0  0  0  0  0  0
   31.3719   39.9927   26.5129 H   0  0  0  0  0  0  0  0  0  0  0  0
   31.1333   38.5517   25.5534 H   0  0  0  0  0  0  0  0  0  0  0  0
   31.2756   37.1049   27.5705 H   0  0  0  0  0  0  0  0  0  0  0  0
   30.0792   38.3459   27.8384 H   0  0  0  0  0  0  0  0  0  0  0  0
   35.0451   35.4929   18.8256 O   0  0  0  0  0  0  0  0  0  0  0  0
   38.4665   36.4526   16.5886 C   0  0  0  0  0  0  0  0  0  0  0  0
   38.5521   36.3073   17.9782 C   0  0  0  0  0  0  0  0  0  0  0  0
   37.4046   36.0612   18.7466 C   0  0  0  0  0  0  0  0  0  0  0  0
   36.1579   35.8663   18.1143 C   0  0  0  0  0  0  0  0  0  0  0  0
   36.0816   35.9492   16.7079 C   0  0  0  0  0  0  0  0  0  0  0  0
   37.2136   36.3493   15.9690 C   0  0  0  0  0  0  0  0  0  0  0  0
   39.3514   36.7084   16.0221 H   0  0  0  0  0  0  0  0  0  0  0  0
   39.5152   36.3495   18.4643 H   0  0  0  0  0  0  0  0  0  0  0  0
   37.5000   35.9566   19.8169 H   0  0  0  0  0  0  0  0  0  0  0  0
   35.1350   35.8343   16.2012 H   0  0  0  0  0  0  0  0  0  0  0  0
   37.1003   36.7493   14.6888 F   0  0  0  0  0  0  0  0  0  0  0  0
  1  7  1  0
  1 10  2  0
  1 11  1  0
  2  9  1  0
  2 12  2  0
  2 13  1  0
  3  4  1  0
  3  5  2  0
  3  6  1  0
  4  7  2  0
  4 14  1  0
  5 11  1  0
  5 12  1  0
  6  9  2  0
  6 15  1  0
  7 35  1  0
  8 11  1  0
  8 16  1  0
  8 17  1  0
  8 18  1  0
 13 19  1  0
 13 22  1  0
 20 21  1  0
 20 25  1  0
 20 26  1  0
 20 27  1  0
 21 22  1  0
 21 28  1  0
 21 29  1  0
 22 23  1  0
 22 30  1  0
 23 24  1  0
 23 31  1  0
 23 32  1  0
 24 25  1  0
 24 33  1  0
 24 34  1  0
 35 39  1  0
 36 37  2  0
 36 41  1  0
 36 42  1  0
 37 38  1  0
 37 43  1  0
 38 39  2  0
 38 44  1  0
 39 40  1  0
 40 41  2  0
 40 45  1  0
 41 46  1  0
M  END
>  <s_m_entry_id>  (1) 
823

>  <s_m_Source_Path>  (1) 
/projects/mai/users/kmzp800_harry/pmx_colab/docking_jobs/p38/glide-dock_SP_p38_mcs_docking_2

>  <s_m_Source_File>  (1) 
glide-dock_SP_p38_mcs_docking_2_pv.maegz

>  <i_m_Source_File_Index>  (1) 
7

>  <s_pdb_PDB_TITLE>  (1) 
MX MODEL

>  <r_i_docking_score>  (1) 
-7.54317867267466

>  <r_i_glide_gscore>  (1) 
-7.54317867267466

>  <r_i_glide_emodel>  (1) 
-54.4238755707714

>  <index_string>  (1) 
5:0:0

$$$$
