0:0:0
     RDKit          3D

 47 49  0  0  1  0  0  0  0  0999 V2000
  -14.8650  -19.1230  -25.8240 C   0  0  0  0  0  0  0  0  0  0  0  0
  -14.4200  -19.8590  -24.7190 C   0  0  0  0  0  0  0  0  0  0  0  0
  -15.0000  -19.7740  -27.0560 C   0  0  0  0  0  0  0  0  0  0  0  0
  -14.1140  -21.2080  -24.8550 C   0  0  0  0  0  0  0  0  0  0  0  0
  -14.7130  -21.1280  -27.1810 C   0  0  0  0  0  0  0  0  0  0  0  0
  -14.2780  -21.8700  -26.0820 C   0  0  0  0  0  0  0  0  0  0  0  0
  -14.7670  -16.8100  -26.5850 N   0  0  0  0  0  0  0  0  0  0  0  0
  -15.0020  -15.4290  -26.4490 C   0  0  0  0  0  0  0  0  0  0  0  0
  -15.7180  -14.9410  -25.3460 C   0  0  0  0  0  0  0  0  0  0  0  0
  -15.4710  -12.6880  -26.1740 C   0  0  0  0  0  0  0  0  0  0  0  0
  -14.7590  -13.1690  -27.2670 C   0  0  0  0  0  0  0  0  0  0  0  0
  -15.9540  -13.5700  -25.2030 C   0  0  0  0  0  0  0  0  0  0  0  0
  -14.5230  -14.5330  -27.4210 C   0  0  0  0  0  0  0  0  0  0  0  0
  -16.2240  -15.9330  -24.3200 C   0  0  0  0  0  0  0  0  0  0  0  0
  -15.8860  -17.2120  -24.6300 N   0  0  0  0  0  0  0  0  0  0  0  0
  -15.1600  -17.6760  -25.7110 C   0  0  0  0  0  0  0  0  0  0  0  0
  -16.8850  -15.6740  -23.3150 O   0  0  0  0  0  0  0  0  0  0  0  0
  -13.7490  -15.0070  -28.6360 C   0  0  0  0  0  0  0  0  0  0  0  0
  -15.7040  -11.3600  -26.0890 F   0  0  0  0  0  0  0  0  0  0  0  0
  -13.9450  -23.3750  -26.2150 C   0  0  0  0  0  0  0  0  0  0  0  0
  -15.2570  -24.1520  -26.4310 C   0  0  0  0  0  0  0  0  0  0  0  0
  -13.1920  -23.8000  -24.9510 C   0  0  0  0  0  0  0  0  0  0  0  0
  -13.0410  -23.5800  -27.3230 O   0  0  0  0  0  0  0  0  0  0  0  0
  -12.5980  -24.8940  -27.7100 C   0  0  0  0  0  0  0  0  0  0  0  0
  -11.1910  -25.0110  -28.3340 C   0  0  0  0  0  0  0  0  0  0  0  0
  -10.9200  -23.9660  -29.2350 O   0  0  0  0  0  0  0  0  0  0  0  0
  -14.3123  -19.3682  -23.7405 H   0  0  0  0  0  0  0  0  0  0  0  0
  -15.3374  -19.2068  -27.9360 H   0  0  0  0  0  0  0  0  0  0  0  0
  -13.7367  -21.7667  -23.9858 H   0  0  0  0  0  0  0  0  0  0  0  0
  -14.8301  -21.6206  -28.1575 H   0  0  0  0  0  0  0  0  0  0  0  0
  -14.3773  -12.4634  -28.0196 H   0  0  0  0  0  0  0  0  0  0  0  0
  -16.5137  -13.1898  -24.3357 H   0  0  0  0  0  0  0  0  0  0  0  0
  -16.2148  -17.9323  -23.9713 H   0  0  0  0  0  0  0  0  0  0  0  0
  -12.8533  -15.5555  -28.3091 H   0  0  0  0  0  0  0  0  0  0  0  0
  -14.3852  -15.6706  -29.2401 H   0  0  0  0  0  0  0  0  0  0  0  0
  -13.4471  -14.1387  -29.2401 H   0  0  0  0  0  0  0  0  0  0  0  0
  -15.6945  -24.4111  -25.4556 H   0  0  0  0  0  0  0  0  0  0  0  0
  -15.9645  -23.5271  -26.9958 H   0  0  0  0  0  0  0  0  0  0  0  0
  -15.0491  -25.0727  -26.9958 H   0  0  0  0  0  0  0  0  0  0  0  0
  -13.7572  -23.4810  -24.0628 H   0  0  0  0  0  0  0  0  0  0  0  0
  -13.0805  -24.8943  -24.9411 H   0  0  0  0  0  0  0  0  0  0  0  0
  -12.1975  -23.3300  -24.9411 H   0  0  0  0  0  0  0  0  0  0  0  0
  -12.6142  -25.5266  -26.8102 H   0  0  0  0  0  0  0  0  0  0  0  0
  -13.2882  -25.2008  -28.5097 H   0  0  0  0  0  0  0  0  0  0  0  0
  -10.4430  -24.9864  -27.5279 H   0  0  0  0  0  0  0  0  0  0  0  0
  -11.1474  -25.9577  -28.8925 H   0  0  0  0  0  0  0  0  0  0  0  0
  -10.7063  -23.1418  -28.7298 H   0  0  0  0  0  0  0  0  0  0  0  0
  1 16  1  0
  1  2  2  0
  1  3  1  0
  2  4  1  0
  3  5  2  0
  4  6  2  0
  5  6  1  0
  6 20  1  0
  7  8  1  0
  7 16  2  0
  8  9  2  0
  8 13  1  0
  9 12  1  0
  9 14  1  0
 10 19  1  0
 10 12  2  0
 10 11  1  0
 11 13  2  0
 13 18  1  0
 14 17  2  0
 14 15  1  0
 15 16  1  0
 20 22  1  0
 20 21  1  0
 20 23  1  0
 23 24  1  0
 24 25  1  0
 25 26  1  0
  2 27  1  0
  3 28  1  0
  4 29  1  0
  5 30  1  0
 11 31  1  0
 12 32  1  0
 15 33  1  0
 18 34  1  0
 18 35  1  0
 18 36  1  0
 21 37  1  0
 21 38  1  0
 21 39  1  0
 22 40  1  0
 22 41  1  0
 22 42  1  0
 24 43  1  0
 24 44  1  0
 25 45  1  0
 25 46  1  0
 26 47  1  0
M  END
>  <s_m_entry_id>  (1) 
2328

>  <MODEL>  (1) 
1

>  <REMARK>  (1) 
 VINA RESULT:   -10.091      0.000      0.000
 INTER + INTRA:         -13.906
 INTER:                 -13.335
 INTRA:                  -0.571
 UNBOUND:                -0.571
  Name = 5o
  9 active torsions:
  status: ('A' for Active; 'I' for Inactive)
    1  A    between atoms: C_1  and  C_17
    2  A    between atoms: C_7  and  C_8
    3  A    between atoms: C_8  and  C_19
    4  A    between atoms: C_8  and  O_20
    5  A    between atoms: C_8  and  C_21
    6  A    between atoms: C_14  and  C_22
    7  A    between atoms: O_20  and  C_24
    8  A    between atoms: C_24  and  C_25
    9  A    between atoms: C_25  and  O_26
                            x       y       z     vdW  Elec       q    Type
                         _______ _______ _______ _____ _____    ______ ____

>  <TORSDO>  (1) 
F 6

>  <s_m_Source_Path>  (1) 
/projects/mai/users/kmzp800_harry/pmx_colab/docking_jobs/tnks2/vina_prep/output

>  <s_m_Source_File>  (1) 
tnks_naive_vina.sdf

>  <i_m_Source_File_Index>  (1) 
1

>  <index_string>  (1) 
0:0:0

$$$$
