21:0:0
     RDKit          3D

 46 50  0  0  1  0  0  0  0  0999 V2000
    5.5480   -0.5960   16.2690 C   0  0  0  0  0  0  0  0  0  0  0  0
    4.2700   -1.0340   16.1500 N   0  0  0  0  0  0  0  0  0  0  0  0
    3.7700   -0.2880   15.1510 C   0  0  0  0  0  0  0  0  0  0  0  0
    2.4790   -0.3440   14.6320 C   0  0  0  0  0  0  0  0  0  0  0  0
    1.5250   -1.2710   15.1670 N   0  0  0  0  0  0  0  0  0  0  0  0
    2.1690    0.5080   13.6090 N   0  0  0  0  0  0  0  0  0  0  0  0
    3.0800    1.3950   13.0960 C   0  0  0  0  0  0  0  0  0  0  0  0
    4.3790    1.4310   13.6410 C   0  0  0  0  0  0  0  0  0  0  0  0
    4.6590    0.5760   14.6530 N   0  0  0  0  0  0  0  0  0  0  0  0
    5.7980    0.4090   15.3380 C   0  0  0  0  0  0  0  0  0  0  0  0
    2.6990    2.2970   11.9890 C   0  0  0  0  0  0  0  0  0  0  0  0
    3.6770    2.7150   11.0490 C   0  0  0  0  0  0  0  0  0  0  0  0
    3.3460    3.5740    9.9830 C   0  0  0  0  0  0  0  0  0  0  0  0
    2.0220    3.9890    9.9000 C   0  0  0  0  0  0  0  0  0  0  0  0
    1.4480    4.7950    8.9970 N   0  0  0  0  0  0  0  0  0  0  0  0
    0.1690    4.8750    9.3590 N   0  0  0  0  0  0  0  0  0  0  0  0
   -0.0900    4.1570   10.4510 N   0  0  0  0  0  0  0  0  0  0  0  0
    1.0790    3.5970   10.7910 C   0  0  0  0  0  0  0  0  0  0  0  0
    1.3650    2.7500   11.8560 C   0  0  0  0  0  0  0  0  0  0  0  0
    0.1640   -1.4620   14.7550 C   0  0  0  0  0  0  0  0  0  0  0  0
   -0.4660   -2.6660   15.0750 C   0  0  0  0  0  0  0  0  0  0  0  0
   -1.7890   -2.8960   14.6950 C   0  0  0  0  0  0  0  0  0  0  0  0
   -2.5050   -1.9180   13.9860 C   0  0  0  0  0  0  0  0  0  0  0  0
   -1.8810   -0.7050   13.6600 C   0  0  0  0  0  0  0  0  0  0  0  0
   -0.5480   -0.4840   14.0480 C   0  0  0  0  0  0  0  0  0  0  0  0
   -3.8320   -2.1310   13.5970 O   0  0  0  0  0  0  0  0  0  0  0  0
   -4.2340   -3.2410   12.8070 C   0  0  0  0  0  0  0  0  0  0  0  0
   -2.6040    0.2630   12.9540 O   0  0  0  0  0  0  0  0  0  0  0  0
   -1.9810    1.3110   12.2250 C   0  0  0  0  0  0  0  0  0  0  0  0
    6.2803   -0.9788   16.9951 H   0  0  0  0  0  0  0  0  0  0  0  0
    1.8553   -1.8699   15.9372 H   0  0  0  0  0  0  0  0  0  0  0  0
    5.1383    2.1287   13.2581 H   0  0  0  0  0  0  0  0  0  0  0  0
    6.7415    0.9560   15.1940 H   0  0  0  0  0  0  0  0  0  0  0  0
    4.7132    2.3613   11.1551 H   0  0  0  0  0  0  0  0  0  0  0  0
    4.0993    3.9008    9.2511 H   0  0  0  0  0  0  0  0  0  0  0  0
   -0.9954    4.0543   10.9313 H   0  0  0  0  0  0  0  0  0  0  0  0
    0.5842    2.4438   12.5678 H   0  0  0  0  0  0  0  0  0  0  0  0
    0.0846   -3.4392   15.6309 H   0  0  0  0  0  0  0  0  0  0  0  0
   -2.2739   -3.8492   14.9524 H   0  0  0  0  0  0  0  0  0  0  0  0
   -0.0583    0.4676   13.7937 H   0  0  0  0  0  0  0  0  0  0  0  0
   -4.5342   -4.0698   13.4650 H   0  0  0  0  0  0  0  0  0  0  0  0
   -5.0840   -2.9505   12.1721 H   0  0  0  0  0  0  0  0  0  0  0  0
   -3.3951   -3.5622   12.1721 H   0  0  0  0  0  0  0  0  0  0  0  0
   -1.5482    2.0390   12.9269 H   0  0  0  0  0  0  0  0  0  0  0  0
   -1.1841    0.8938   11.5918 H   0  0  0  0  0  0  0  0  0  0  0  0
   -2.7282    1.8117   11.5918 H   0  0  0  0  0  0  0  0  0  0  0  0
  1  2  1  0
  1 10  2  0
  2  3  2  0
  3  4  1  0
  3  9  1  0
  4  5  1  0
  4  6  2  0
  5 20  1  0
  6  7  1  0
  7  8  2  0
  7 11  1  0
  8  9  1  0
  9 10  1  0
 11 12  2  0
 11 19  1  0
 12 13  1  0
 13 14  2  0
 14 18  1  0
 14 15  1  0
 15 16  2  0
 16 17  1  0
 17 18  1  0
 18 19  2  0
 20 21  2  0
 20 25  1  0
 21 22  1  0
 22 23  2  0
 23 24  1  0
 23 26  1  0
 24 25  2  0
 24 28  1  0
 26 27  1  0
 28 29  1  0
  1 30  1  0
  5 31  1  0
  8 32  1  0
 10 33  1  0
 12 34  1  0
 13 35  1  0
 17 36  1  0
 19 37  1  0
 21 38  1  0
 22 39  1  0
 25 40  1  0
 27 41  1  0
 27 42  1  0
 27 43  1  0
 29 44  1  0
 29 45  1  0
 29 46  1  0
M  END
>  <s_m_entry_id>  (1) 
753

>  <MODEL>  (1) 
1

>  <REMARK>  (1) 
 VINA RESULT:    -9.737      0.000      0.000
 INTER + INTRA:         -12.077
 INTER:                 -11.623
 INTRA:                  -0.454
 UNBOUND:                -0.063
  Name = /scratch/kmzp800/tmpgv8l9s2o/tmppzscouyp.pdb
  6 active torsions:
  status: ('A' for Active; 'I' for Inactive)
    1  A    between atoms: N2_5  and  C4_6
    2  A    between atoms: C7_9  and  O1_10
    3  A    between atoms: O1_10  and  C8_11
    4  A    between atoms: C9_12  and  O2_13
    5  A    between atoms: O2_13  and  C10_14
    6  A    between atoms: C12_17  and  C13_18
                            x       y       z     vdW  Elec       q    Type
                         _______ _______ _______ _____ _____    ______ ____

>  <TORSDO>  (1) 
F 4

>  <grid_id>  (1) 
syk-prepared

>  <grid_path>  (1) 
syk_vina.pdbqt

>  <grid_filename>  (1) 
syk_vina.pdbqt

>  <docking_score>  (1) 
-9.737

>  <compound_name>  (1) 
CHEMBL3265019

>  <index_string>  (1) 
21:0:0

>  <s_m_Source_Path>  (1) 
/projects/mai/users/kmzp800_harry/pmx_colab/docking_jobs/syk/vina_prep/output

>  <s_m_Source_File>  (1) 
ptp1b_docked_conformers.sdf

>  <i_m_Source_File_Index>  (1) 
577

$$$$
