27:0:0
     RDKit          3D

 46 49  0  0  1  0  0  0  0  0999 V2000
   34.4300   35.9320   19.8160 C   0  0  0  0  0  0  0  0  0  0  0  0
   34.6980   37.1570   20.4380 C   0  0  0  0  0  0  0  0  0  0  0  0
   34.5290   37.2860   21.8110 C   0  0  0  0  0  0  0  0  0  0  0  0
   34.7940   38.4890   22.4610 C   0  0  0  0  0  0  0  0  0  0  0  0
   34.6190   38.5800   23.8040 N   0  0  0  0  0  0  0  0  0  0  0  0
   34.1860   37.5140   24.5330 C   0  0  0  0  0  0  0  0  0  0  0  0
   34.0040   37.6210   25.9490 N   0  0  0  0  0  0  0  0  0  0  0  0
   33.9220   36.3340   23.9130 N   0  0  0  0  0  0  0  0  0  0  0  0
   34.0820   36.1890   22.5680 C   0  0  0  0  0  0  0  0  0  0  0  0
   33.8110   34.9980   21.9490 N   0  0  0  0  0  0  0  0  0  0  0  0
   33.3420   33.8630   22.7390 C   0  0  0  0  0  0  0  0  0  0  0  0
   33.9740   34.8570   20.5950 C   0  0  0  0  0  0  0  0  0  0  0  0
   33.7170   33.7560   20.0340 O   0  0  0  0  0  0  0  0  0  0  0  0
   34.2520   38.8280   26.7310 C   0  0  0  0  0  0  0  0  0  0  0  0
   35.6520   38.8060   27.3480 C   0  0  0  0  0  0  0  0  0  0  0  0
   35.7920   39.9880   28.3070 C   0  0  0  0  0  0  0  0  0  0  0  0
   34.8160   39.9030   29.3180 O   0  0  0  0  0  0  0  0  0  0  0  0
   33.5790   40.1820   28.7090 C   0  0  0  0  0  0  0  0  0  0  0  0
   33.1730   39.0240   27.7970 C   0  0  0  0  0  0  0  0  0  0  0  0
   34.5680   35.7720   18.4290 O   0  0  0  0  0  0  0  0  0  0  0  0
   38.2620   35.8800   16.4190 C   0  0  0  0  0  0  0  0  0  0  0  0
   38.2050   35.9730   17.8110 C   0  0  0  0  0  0  0  0  0  0  0  0
   36.9690   35.9360   18.4640 C   0  0  0  0  0  0  0  0  0  0  0  0
   35.7850   35.7940   17.7330 C   0  0  0  0  0  0  0  0  0  0  0  0
   35.8450   35.7220   16.3260 C   0  0  0  0  0  0  0  0  0  0  0  0
   34.7150   35.6690   15.5800 F   0  0  0  0  0  0  0  0  0  0  0  0
   37.0840   35.7600   15.6780 C   0  0  0  0  0  0  0  0  0  0  0  0
   35.0414   38.0150   19.8415 H   0  0  0  0  0  0  0  0  0  0  0  0
   35.1434   39.3611   21.8888 H   0  0  0  0  0  0  0  0  0  0  0  0
   33.6740   36.7852   26.4525 H   0  0  0  0  0  0  0  0  0  0  0  0
   33.4385   34.0966   23.8096 H   0  0  0  0  0  0  0  0  0  0  0  0
   32.2870   33.6617   22.5013 H   0  0  0  0  0  0  0  0  0  0  0  0
   33.9472   32.9757   22.5013 H   0  0  0  0  0  0  0  0  0  0  0  0
   34.2042   39.6898   26.0491 H   0  0  0  0  0  0  0  0  0  0  0  0
   35.7975   37.8650   27.8988 H   0  0  0  0  0  0  0  0  0  0  0  0
   36.4093   38.8803   26.5537 H   0  0  0  0  0  0  0  0  0  0  0  0
   36.7926   39.9707   28.7636 H   0  0  0  0  0  0  0  0  0  0  0  0
   35.6543   40.9257   27.7486 H   0  0  0  0  0  0  0  0  0  0  0  0
   32.8129   40.3195   29.4863 H   0  0  0  0  0  0  0  0  0  0  0  0
   33.6703   41.0995   28.1092 H   0  0  0  0  0  0  0  0  0  0  0  0
   32.2132   39.2555   27.3121 H   0  0  0  0  0  0  0  0  0  0  0  0
   33.0651   38.1039   28.3902 H   0  0  0  0  0  0  0  0  0  0  0  0
   39.2347   35.9012   15.9058 H   0  0  0  0  0  0  0  0  0  0  0  0
   39.1322   36.0754   18.3939 H   0  0  0  0  0  0  0  0  0  0  0  0
   36.9276   36.0191   19.5601 H   0  0  0  0  0  0  0  0  0  0  0  0
   37.1309   35.6952   14.5809 H   0  0  0  0  0  0  0  0  0  0  0  0
  1  2  2  0
  1 12  1  0
  1 20  1  0
  2  3  1  0
  2 28  1  0
  3  4  2  0
  3  9  1  0
  4  5  1  0
  4 29  1  0
  5  6  2  0
  6  7  1  0
  6  8  1  0
  7 14  1  0
  7 30  1  0
  8  9  2  0
  9 10  1  0
 10 11  1  0
 10 12  1  0
 11 31  1  0
 11 32  1  0
 11 33  1  0
 12 13  2  0
 14 15  1  0
 14 19  1  0
 14 34  1  0
 15 16  1  0
 15 35  1  0
 15 36  1  0
 16 17  1  0
 16 37  1  0
 16 38  1  0
 17 18  1  0
 18 19  1  0
 18 39  1  0
 18 40  1  0
 19 41  1  0
 19 42  1  0
 20 24  1  0
 21 22  2  0
 21 27  1  0
 21 43  1  0
 22 23  1  0
 22 44  1  0
 23 24  2  0
 23 45  1  0
 24 25  1  0
 25 26  1  0
 25 27  2  0
 27 46  1  0
M  END
>  <s_m_entry_id>  (1) 
1382

>  <MODEL>  (1) 
1

>  <REMARK>  (1) 
 VINA RESULT:    -8.327      0.000      0.000
 INTER + INTRA:         -10.173
 INTER:                  -9.787
 INTRA:                  -0.386
 UNBOUND:                -0.386
  Name = /scratch/kmzp800/tmpk14sf23b/tmpa1qn73xw.pdb
  4 active torsions:
  status: ('A' for Active; 'I' for Inactive)
    1  A    between atoms: C4_4  and  O1_5
    2  A    between atoms: O1_5  and  C5_6
    3  A    between atoms: N2_12  and  C10_13
    4  A    between atoms: N4_21  and  C16_22
                            x       y       z     vdW  Elec       q    Type
                         _______ _______ _______ _____ _____    ______ ____

>  <TORSDO>  (1) 
F 3

>  <grid_id>  (1) 
p38-prepared

>  <grid_path>  (1) 
/projects/mai/users/kmzp800_harry/pmx_colab/docking_jobs/p38/vina_docking/input_files/p38_vina.pdbqt

>  <grid_filename>  (1) 
p38_vina.pdbqt

>  <docking_score>  (1) 
-8.327

>  <compound_name>  (1) 
lig_p38a_2g

>  <index_string>  (1) 
27:0:0

>  <s_m_Source_Path>  (1) 
/projects/mai/users/kmzp800_harry/pmx_colab/docking_jobs/p38

>  <s_m_Source_File>  (1) 
p38_confs_vina_naive.sdf

>  <i_m_Source_File_Index>  (1) 
29

$$$$
