2:0:0
     RDKit          3D

 42 44  0  0  1  0  0  0  0  0999 V2000
   41.7260    8.3030   17.4050 C   0  0  0  0  0  0  0  0  0  0  0  0
   40.7840    7.6290   16.6210 C   0  0  0  0  0  0  0  0  0  0  0  0
   39.9180    8.3360   15.7770 C   0  0  0  0  0  0  0  0  0  0  0  0
   40.0050    9.7350   15.7490 C   0  0  0  0  0  0  0  0  0  0  0  0
   40.9470   10.4210   16.5260 C   0  0  0  0  0  0  0  0  0  0  0  0
   41.8080    9.6970   17.3550 C   0  0  0  0  0  0  0  0  0  0  0  0
   38.9070    7.6540   14.9330 C   0  0  0  0  0  0  0  0  0  0  0  0
   37.2610    7.6460   15.2960 S   0  0  0  0  0  0  0  0  0  0  0  0
   36.7590    6.7590   13.9680 C   0  0  0  0  0  0  0  0  0  0  0  0
   37.8760    6.4370   13.1990 C   0  0  0  0  0  0  0  0  0  0  0  0
   39.0920    6.9510   13.7280 C   0  0  0  0  0  0  0  0  0  0  0  0
   40.7870    6.8370   12.8230 Br  0  0  0  0  0  0  0  0  0  0  0  0
   35.3620    6.3900   13.6900 C   0  0  0  0  0  0  0  0  0  0  0  0
   34.7920    6.8180   12.6520 O   0  0  0  0  0  0  0  0  0  0  0  0
   34.6580    5.5700   14.5630 O   0  0  0  0  0  0  0  0  0  0  0  0
   37.7350    5.6870   12.0220 O   0  0  0  0  0  0  0  0  0  0  0  0
   37.4670    4.2940   11.9790 C   0  0  0  0  0  0  0  0  0  0  0  0
   36.4050    4.0250   10.9750 C   0  0  0  0  0  0  0  0  0  0  0  0
   36.6790    4.0460    9.7470 O   0  0  0  0  0  0  0  0  0  0  0  0
   35.1020    3.7900   11.3900 O   0  0  0  0  0  0  0  0  0  0  0  0
   41.0510   11.8460   16.4820 N   0  0  0  0  0  0  0  0  0  0  0  0
   42.5420   12.6940   16.2220 S   0  0  0  0  0  0  0  0  0  0  0  0
   43.0670   13.1790   17.5440 O   0  0  0  0  0  0  0  0  0  0  0  0
   43.5460   11.7600   15.6090 O   0  0  0  0  0  0  0  0  0  0  0  0
   42.2860   14.0500   15.1360 C   0  0  0  0  0  0  0  0  0  0  0  0
   41.1780   14.0690   14.2800 C   0  0  0  0  0  0  0  0  0  0  0  0
   40.9950   15.1350   13.3950 C   0  0  0  0  0  0  0  0  0  0  0  0
   41.9190   16.1830   13.3620 C   0  0  0  0  0  0  0  0  0  0  0  0
   41.7430   17.2150   12.5030 F   0  0  0  0  0  0  0  0  0  0  0  0
   43.0260   16.1660   14.2160 C   0  0  0  0  0  0  0  0  0  0  0  0
   43.2100   15.1000   15.1020 C   0  0  0  0  0  0  0  0  0  0  0  0
   42.4024    7.7356   18.0611 H   0  0  0  0  0  0  0  0  0  0  0  0
   40.7225    6.5317   16.6677 H   0  0  0  0  0  0  0  0  0  0  0  0
   39.3200   10.3051   15.1042 H   0  0  0  0  0  0  0  0  0  0  0  0
   42.5518   10.2255   17.9694 H   0  0  0  0  0  0  0  0  0  0  0  0
   38.3826    3.7529   11.6983 H   0  0  0  0  0  0  0  0  0  0  0  0
   37.1298    3.9546   12.9695 H   0  0  0  0  0  0  0  0  0  0  0  0
   40.1927   12.4004   16.6119 H   0  0  0  0  0  0  0  0  0  0  0  0
   40.4508   13.2440   14.3042 H   0  0  0  0  0  0  0  0  0  0  0  0
   40.1234   15.1492   12.7241 H   0  0  0  0  0  0  0  0  0  0  0  0
   43.7525   16.9916   14.1908 H   0  0  0  0  0  0  0  0  0  0  0  0
   44.0818   15.0869   15.7727 H   0  0  0  0  0  0  0  0  0  0  0  0
  1  2  2  0
  1  6  1  0
  1 32  1  0
  2  3  1  0
  2 33  1  0
  3  4  2  0
  3  7  1  0
  4  5  1  0
  4 34  1  0
  5  6  2  0
  5 21  1  0
  6 35  1  0
  7  8  1  0
  7 11  2  0
  8  9  1  0
  9 10  2  0
  9 13  1  0
 10 11  1  0
 10 16  1  0
 11 12  1  0
 13 15  1  0
 13 14  2  0
 16 17  1  0
 17 18  1  0
 17 36  1  0
 17 37  1  0
 18 20  1  0
 18 19  2  0
 21 22  1  0
 21 38  1  0
 22 23  2  0
 22 24  2  0
 22 25  1  0
 25 26  2  0
 25 31  1  0
 26 27  1  0
 26 39  1  0
 27 28  2  0
 27 40  1  0
 28 30  1  0
 28 29  1  0
 30 31  2  0
 30 41  1  0
 31 42  1  0
M  CHG  2  15  -1  20  -1
M  END
>  <s_m_entry_id>  (1) 
1348

>  <MODEL>  (1) 
1

>  <REMARK>  (1) 
 VINA RESULT:    -5.423      0.000      0.000
 INTER + INTRA:          -8.830
 INTER:                  -7.959
 INTRA:                  -0.871
 UNBOUND:                -0.871
  Name = /scratch/kmzp800/tmp5rvzmtsq/tmppv4qdw0a.pdb
  8 active torsions:
  status: ('A' for Active; 'I' for Inactive)
    1  A    between atoms: C3_3  and  C4_4
    2  A    between atoms: C5_6  and  C6_7
    3  A    between atoms: C7_10  and  O3_11
    4  A    between atoms: O3_11  and  C8_12
    5  A    between atoms: C8_12  and  C9_13
    6  A    between atoms: C12_19  and  N1_20
    7  A    between atoms: N1_20  and  S2_21
    8  A    between atoms: S2_21  and  C13_24
                            x       y       z     vdW  Elec       q    Type
                         _______ _______ _______ _____ _____    ______ ____

>  <TORSDO>  (1) 
F 8

>  <grid_id>  (1) 
ptp1b-prepared

>  <grid_path>  (1) 
ptp1b_vina.pdbqt

>  <grid_filename>  (1) 
ptp1b_vina.pdbqt

>  <docking_score>  (1) 
-5.423

>  <compound_name>  (1) 
lig_23472

>  <index_string>  (1) 
2:0:0

>  <s_m_Source_Path>  (1) 
/projects/mai/users/kmzp800_harry/pmx_colab/docking_jobs/ptp1b/vina_prep

>  <s_m_Source_File>  (1) 
ptp1b_vina_naive_confs.sdf

>  <i_m_Source_File_Index>  (1) 
3

$$$$
