16:0:0
     RDKit          3D

 48 50  0  0  1  0  0  0  0  0999 V2000
   42.3700    9.0160   16.8070 C   0  0  0  0  0  0  0  0  0  0  0  0
   42.7700   10.3500   16.7080 C   0  0  0  0  0  0  0  0  0  0  0  0
   41.9800   11.2860   16.0250 C   0  0  0  0  0  0  0  0  0  0  0  0
   40.7890   10.8530   15.4250 C   0  0  0  0  0  0  0  0  0  0  0  0
   40.3790    9.5140   15.5220 C   0  0  0  0  0  0  0  0  0  0  0  0
   41.1760    8.6000   16.2150 C   0  0  0  0  0  0  0  0  0  0  0  0
   42.4400   12.6890   15.9090 C   0  0  0  0  0  0  0  0  0  0  0  0
   43.4420   13.4310   17.0400 S   0  0  0  0  0  0  0  0  0  0  0  0
   43.5290   14.9260   16.2850 C   0  0  0  0  0  0  0  0  0  0  0  0
   42.7710   14.8800   15.1180 C   0  0  0  0  0  0  0  0  0  0  0  0
   42.1390   13.6250   14.9040 C   0  0  0  0  0  0  0  0  0  0  0  0
   40.8650   13.2810   13.5040 Br  0  0  0  0  0  0  0  0  0  0  0  0
   44.2960   16.0740   16.7940 C   0  0  0  0  0  0  0  0  0  0  0  0
   44.2690   16.3550   18.0210 O   0  0  0  0  0  0  0  0  0  0  0  0
   45.0540   16.8560   15.9330 O   0  0  0  0  0  0  0  0  0  0  0  0
   42.6730   16.0070   14.2870 O   0  0  0  0  0  0  0  0  0  0  0  0
   41.6830   17.0140   14.4080 C   0  0  0  0  0  0  0  0  0  0  0  0
   41.0700   17.2710   13.0790 C   0  0  0  0  0  0  0  0  0  0  0  0
   40.2930   18.2480   12.9210 O   0  0  0  0  0  0  0  0  0  0  0  0
   41.3230   16.4080   12.0200 O   0  0  0  0  0  0  0  0  0  0  0  0
   39.1660    9.0620   14.9140 N   0  0  0  0  0  0  0  0  0  0  0  0
   38.1660    8.2550   15.6030 C   0  0  0  0  0  0  0  0  0  0  0  0
   37.9700    6.9240   14.8960 C   0  0  0  0  0  0  0  0  0  0  0  0
   36.5190    6.8010   14.4400 C   0  0  0  0  0  0  0  0  0  0  0  0
   36.3030    5.4710   13.7250 C   0  0  0  0  0  0  0  0  0  0  0  0
   37.2400    5.3600   12.5260 C   0  0  0  0  0  0  0  0  0  0  0  0
   38.6920    5.4850   12.9790 C   0  0  0  0  0  0  0  0  0  0  0  0
   38.9060    6.8170   13.6930 C   0  0  0  0  0  0  0  0  0  0  0  0
   42.9954    8.2930   17.3512 H   0  0  0  0  0  0  0  0  0  0  0  0
   43.7151   10.6703   17.1708 H   0  0  0  0  0  0  0  0  0  0  0  0
   40.1677   11.5721   14.8710 H   0  0  0  0  0  0  0  0  0  0  0  0
   40.8619    7.5488   16.2946 H   0  0  0  0  0  0  0  0  0  0  0  0
   40.9058   16.6810   15.1116 H   0  0  0  0  0  0  0  0  0  0  0  0
   42.1459   17.9390   14.7824 H   0  0  0  0  0  0  0  0  0  0  0  0
   38.9886    9.3214   13.9331 H   0  0  0  0  0  0  0  0  0  0  0  0
   38.4995    8.0702   16.6348 H   0  0  0  0  0  0  0  0  0  0  0  0
   37.2104    8.7998   15.6027 H   0  0  0  0  0  0  0  0  0  0  0  0
   38.2056    6.1079   15.5949 H   0  0  0  0  0  0  0  0  0  0  0  0
   35.8568    6.8541   15.3167 H   0  0  0  0  0  0  0  0  0  0  0  0
   36.2897    7.6232   13.7461 H   0  0  0  0  0  0  0  0  0  0  0  0
   36.5067    4.6457   14.4231 H   0  0  0  0  0  0  0  0  0  0  0  0
   35.2620    5.4169   13.3737 H   0  0  0  0  0  0  0  0  0  0  0  0
   37.0938    4.3843   12.0396 H   0  0  0  0  0  0  0  0  0  0  0  0
   37.0139    6.1703   11.8173 H   0  0  0  0  0  0  0  0  0  0  0  0
   38.9306    4.6608   13.6673 H   0  0  0  0  0  0  0  0  0  0  0  0
   39.3492    5.4391   12.0981 H   0  0  0  0  0  0  0  0  0  0  0  0
   38.6975    7.6415   12.9953 H   0  0  0  0  0  0  0  0  0  0  0  0
   39.9478    6.8757   14.0410 H   0  0  0  0  0  0  0  0  0  0  0  0
  1  2  2  0
  1  6  1  0
  1 29  1  0
  2  3  1  0
  2 30  1  0
  3  4  2  0
  3  7  1  0
  4  5  1  0
  4 31  1  0
  5  6  2  0
  5 21  1  0
  6 32  1  0
  7  8  1  0
  7 11  2  0
  8  9  1  0
  9 13  1  0
  9 10  2  0
 10 11  1  0
 10 16  1  0
 11 12  1  0
 13 14  1  0
 13 15  2  0
 16 17  1  0
 17 18  1  0
 17 33  1  0
 17 34  1  0
 18 19  1  0
 18 20  2  0
 21 22  1  0
 21 35  1  0
 22 23  1  0
 22 36  1  0
 22 37  1  0
 23 24  1  0
 23 28  1  0
 23 38  1  0
 24 25  1  0
 24 39  1  0
 24 40  1  0
 25 26  1  0
 25 41  1  0
 25 42  1  0
 26 27  1  0
 26 43  1  0
 26 44  1  0
 27 28  1  0
 27 45  1  0
 27 46  1  0
 28 47  1  0
 28 48  1  0
M  CHG  2  14  -1  19  -1
M  END
>  <s_m_entry_id>  (1) 
1233

>  <MODEL>  (1) 
8

>  <REMARK>  (1) 
 VINA RESULT:    -7.453      6.290      9.045
 INTER + INTRA:         -11.007
 INTER:                 -10.657
 INTRA:                  -0.350
 UNBOUND:                -0.068
  Name = /scratch/kmzp800/tmpaoprtntn/tmp_93v_hlr.pdb
  8 active torsions:
  status: ('A' for Active; 'I' for Inactive)
    1  A    between atoms: C3_3  and  C4_4
    2  A    between atoms: C5_6  and  C6_7
    3  A    between atoms: C7_10  and  O3_11
    4  A    between atoms: O3_11  and  C8_12
    5  A    between atoms: C8_12  and  C9_13
    6  A    between atoms: C12_19  and  N1_20
    7  A    between atoms: N1_20  and  C13_21
    8  A    between atoms: C13_21  and  C14_22
                            x       y       z     vdW  Elec       q    Type
                         _______ _______ _______ _____ _____    ______ ____

>  <TORSDO>  (1) 
F 8

>  <grid_id>  (1) 
ptp1b-prepared

>  <grid_path>  (1) 
ptp1b_vina.pdbqt

>  <grid_filename>  (1) 
ptp1b_vina.pdbqt

>  <docking_score>  (1) 
-7.453

>  <compound_name>  (1) 
lig_23474

>  <index_string>  (1) 
16:0:0

>  <s_m_Source_Path>  (1) 
/projects/mai/users/kmzp800_harry/pmx_colab/docking_jobs/ptp1b

>  <s_m_Source_File>  (1) 
ptp1b_confs_vina_mcs.sdf

>  <i_m_Source_File_Index>  (1) 
17

$$$$
