24:0:0
     RDKit          3D

 31 33  0  0  1  0  0  0  0  0999 V2000
  -14.7590  -17.2630  -26.4740 N   0  0  0  0  0  0  0  0  0  0  0  0
  -14.9850  -15.8860  -26.5340 C   0  0  0  0  0  0  0  0  0  0  0  0
  -15.7640  -15.2570  -25.5520 C   0  0  0  0  0  0  0  0  0  0  0  0
  -15.3410  -13.1490  -26.6010 C   0  0  0  0  0  0  0  0  0  0  0  0
  -14.5800  -13.7600  -27.5890 C   0  0  0  0  0  0  0  0  0  0  0  0
  -15.9450  -13.8760  -25.5810 C   0  0  0  0  0  0  0  0  0  0  0  0
  -14.4150  -15.1420  -27.5790 C   0  0  0  0  0  0  0  0  0  0  0  0
  -16.4180  -16.1120  -24.4860 C   0  0  0  0  0  0  0  0  0  0  0  0
  -16.0750  -17.4240  -24.6100 N   0  0  0  0  0  0  0  0  0  0  0  0
  -15.2600  -18.0150  -25.5570 C   0  0  0  0  0  0  0  0  0  0  0  0
  -17.2020  -15.7220  -23.6190 O   0  0  0  0  0  0  0  0  0  0  0  0
  -15.0120  -19.4670  -25.5420 C   0  0  0  0  0  0  0  0  0  0  0  0
  -14.8930  -20.1470  -26.7630 C   0  0  0  0  0  0  0  0  0  0  0  0
  -14.8870  -20.1780  -24.3440 C   0  0  0  0  0  0  0  0  0  0  0  0
  -14.6480  -21.5050  -26.7890 C   0  0  0  0  0  0  0  0  0  0  0  0
  -14.6210  -21.5410  -24.3740 C   0  0  0  0  0  0  0  0  0  0  0  0
  -14.5020  -22.2120  -25.5970 C   0  0  0  0  0  0  0  0  0  0  0  0
  -14.2420  -23.5510  -25.6260 O   0  0  0  0  0  0  0  0  0  0  0  0
  -13.1640  -23.8320  -26.6290 C   0  0  0  0  0  0  0  0  0  0  0  0
  -15.4699  -12.0569  -26.6260 H   0  0  0  0  0  0  0  0  0  0  0  0
  -14.1092  -13.1537  -28.3769 H   0  0  0  0  0  0  0  0  0  0  0  0
  -16.5520  -13.3721  -24.8144 H   0  0  0  0  0  0  0  0  0  0  0  0
  -13.8472  -15.6430  -28.3769 H   0  0  0  0  0  0  0  0  0  0  0  0
  -16.4756  -18.0595  -23.9054 H   0  0  0  0  0  0  0  0  0  0  0  0
  -14.9958  -19.5932  -27.7079 H   0  0  0  0  0  0  0  0  0  0  0  0
  -14.9991  -19.6591  -23.3806 H   0  0  0  0  0  0  0  0  0  0  0  0
  -14.5678  -22.0301  -27.7522 H   0  0  0  0  0  0  0  0  0  0  0  0
  -14.5032  -22.0962  -23.4317 H   0  0  0  0  0  0  0  0  0  0  0  0
  -12.2288  -24.0758  -26.1036 H   0  0  0  0  0  0  0  0  0  0  0  0
  -13.4626  -24.6823  -27.2597 H   0  0  0  0  0  0  0  0  0  0  0  0
  -13.0095  -22.9441  -27.2597 H   0  0  0  0  0  0  0  0  0  0  0  0
  1 10  2  0
  1  2  1  0
  2  3  2  0
  2  7  1  0
  3  8  1  0
  3  6  1  0
  4  6  2  0
  4  5  1  0
  5  7  2  0
  8 11  2  0
  8  9  1  0
  9 10  1  0
 10 12  1  0
 12 14  1  0
 12 13  2  0
 13 15  1  0
 14 16  2  0
 15 17  2  0
 16 17  1  0
 17 18  1  0
 18 19  1  0
  4 20  1  0
  5 21  1  0
  6 22  1  0
  7 23  1  0
  9 24  1  0
 13 25  1  0
 14 26  1  0
 15 27  1  0
 16 28  1  0
 19 29  1  0
 19 30  1  0
 19 31  1  0
M  END
>  <s_m_entry_id>  (1) 
2352

>  <MODEL>  (1) 
1

>  <REMARK>  (1) 
 VINA RESULT:   -10.581      0.000      0.000
 INTER + INTRA:         -12.097
 INTER:                 -11.818
 INTRA:                  -0.279
 UNBOUND:                -0.279
  Name = 1b
  3 active torsions:
  status: ('A' for Active; 'I' for Inactive)
    1  A    between atoms: C_1  and  C_16
    2  A    between atoms: C_7  and  O_27
    3  A    between atoms: O_27  and  C_28
                            x       y       z     vdW  Elec       q    Type
                         _______ _______ _______ _____ _____    ______ ____

>  <TORSDO>  (1) 
F 2

>  <s_m_Source_Path>  (1) 
/projects/mai/users/kmzp800_harry/pmx_colab/docking_jobs/tnks2/vina_prep/output

>  <s_m_Source_File>  (1) 
tnks_naive_vina.sdf

>  <i_m_Source_File_Index>  (1) 
25

>  <index_string>  (1) 
24:0:0

$$$$
