13:0:0
     RDKit          3D

 63 67  0  0  1  0  0  0  0  0999 V2000
   -4.5617   -3.0520   15.6353 C   0  0  0  0  0  0  0  0  0  0  0  0
   -3.8985   -2.2168   14.6947 O   0  0  0  0  0  0  0  0  0  0  0  0
   -2.5352   -2.0545   14.8260 C   0  0  0  0  0  0  0  0  0  0  0  0
   -1.7411   -2.8252   15.7079 C   0  0  0  0  0  0  0  0  0  0  0  0
   -0.3641   -2.5795   15.8180 C   0  0  0  0  0  0  0  0  0  0  0  0
    0.2471   -1.5558   15.0699 C   0  0  0  0  0  0  0  0  0  0  0  0
    1.6104   -1.3226   15.3053 N   0  0  0  0  0  0  0  0  0  0  0  0
    2.5298   -0.4303   14.7279 C   0  0  0  0  0  0  0  0  0  0  0  0
    2.2035    0.3703   13.7502 N   0  0  0  0  0  0  0  0  0  0  0  0
    3.1302    1.2565   13.2382 C   0  0  0  0  0  0  0  0  0  0  0  0
    4.4300    1.3018   13.6930 C   0  0  0  0  0  0  0  0  0  0  0  0
    4.7672    0.4850   14.7241 N   0  0  0  0  0  0  0  0  0  0  0  0
    5.9145    0.3850   15.4867 C   0  0  0  0  0  0  0  0  0  0  0  0
    5.6170   -0.4989   16.4929 C   0  0  0  0  0  0  0  0  0  0  0  0
    4.3675   -1.0642   16.3164 N   0  0  0  0  0  0  0  0  0  0  0  0
    3.8349   -0.4138   15.2874 C   0  0  0  0  0  0  0  0  0  0  0  0
    2.6511    2.1629   12.1613 C   0  0  0  0  0  0  0  0  0  0  0  0
    3.5664    2.6641   11.1995 C   0  0  0  0  0  0  0  0  0  0  0  0
    3.1517    3.4914   10.1424 C   0  0  0  0  0  0  0  0  0  0  0  0
    1.8022    3.8572   10.0459 C   0  0  0  0  0  0  0  0  0  0  0  0
    0.8766    3.3961   11.0130 C   0  0  0  0  0  0  0  0  0  0  0  0
    1.2943    2.5529   12.0690 C   0  0  0  0  0  0  0  0  0  0  0  0
   -0.5675    3.7839   10.8889 C   0  0  0  0  0  0  0  0  0  0  0  0
   -1.1761    3.5536    9.8415 O   0  0  0  0  0  0  0  0  0  0  0  0
   -1.0735    4.4038   11.9761 N   0  0  0  0  0  0  0  0  0  0  0  0
   -2.3902    4.9020   12.2206 C   0  0  0  0  0  0  0  0  0  0  0  0
   -3.4740    4.7669   11.3196 C   0  0  0  0  0  0  0  0  0  0  0  0
   -4.7450    5.2803   11.6517 C   0  0  0  0  0  0  0  0  0  0  0  0
   -4.9676    5.8964   12.9003 C   0  0  0  0  0  0  0  0  0  0  0  0
   -6.3544    6.4184   13.2595 C   0  0  0  0  0  0  0  0  0  0  0  0
   -6.4159    7.9306   13.0167 C   0  0  0  0  0  0  0  0  0  0  0  0
   -7.3397    8.3648   12.2938 O   0  0  0  0  0  0  0  0  0  0  0  0
   -5.5699    8.6408   13.6068 O   0  0  0  0  0  0  0  0  0  0  0  0
   -3.9025    6.0039   13.8161 C   0  0  0  0  0  0  0  0  0  0  0  0
   -2.6160    5.5485   13.4557 C   0  0  0  0  0  0  0  0  0  0  0  0
   -0.5440   -0.8110   14.1706 C   0  0  0  0  0  0  0  0  0  0  0  0
   -1.9284   -1.0536   14.0366 C   0  0  0  0  0  0  0  0  0  0  0  0
   -2.7382   -0.3156   13.1963 O   0  0  0  0  0  0  0  0  0  0  0  0
   -2.1518    0.6760   12.3610 C   0  0  0  0  0  0  0  0  0  0  0  0
   -5.6325   -3.0159   15.4430 H   0  0  0  0  0  0  0  0  0  0  0  0
   -4.2468   -4.0947   15.5457 H   0  0  0  0  0  0  0  0  0  0  0  0
   -4.3983   -2.7129   16.6625 H   0  0  0  0  0  0  0  0  0  0  0  0
   -2.1633   -3.6018   16.3282 H   0  0  0  0  0  0  0  0  0  0  0  0
    0.2156   -3.1697   16.5135 H   0  0  0  0  0  0  0  0  0  0  0  0
    2.0293   -1.8913   16.0307 H   0  0  0  0  0  0  0  0  0  0  0  0
    5.1854    1.9976   13.3460 H   0  0  0  0  0  0  0  0  0  0  0  0
    6.7695    1.0102   15.2790 H   0  0  0  0  0  0  0  0  0  0  0  0
    6.1413   -0.7795   17.3809 H   0  0  0  0  0  0  0  0  0  0  0  0
    4.6069    2.3813   11.2354 H   0  0  0  0  0  0  0  0  0  0  0  0
    3.8654    3.8349    9.4083 H   0  0  0  0  0  0  0  0  0  0  0  0
    1.4765    4.4896    9.2320 H   0  0  0  0  0  0  0  0  0  0  0  0
    0.5778    2.1925   12.7932 H   0  0  0  0  0  0  0  0  0  0  0  0
   -0.4066    4.5601   12.7197 H   0  0  0  0  0  0  0  0  0  0  0  0
   -3.3609    4.2853   10.3616 H   0  0  0  0  0  0  0  0  0  0  0  0
   -5.5583    5.1880   10.9471 H   0  0  0  0  0  0  0  0  0  0  0  0
   -6.5685    6.2196   14.3087 H   0  0  0  0  0  0  0  0  0  0  0  0
   -7.1170    5.9057   12.6702 H   0  0  0  0  0  0  0  0  0  0  0  0
   -4.0641    6.4615   14.7818 H   0  0  0  0  0  0  0  0  0  0  0  0
   -1.8038    5.6573   14.1625 H   0  0  0  0  0  0  0  0  0  0  0  0
   -0.1031   -0.0293   13.5871 H   0  0  0  0  0  0  0  0  0  0  0  0
   -2.9213    1.1189   11.7283 H   0  0  0  0  0  0  0  0  0  0  0  0
   -1.7150    1.4805   12.9515 H   0  0  0  0  0  0  0  0  0  0  0  0
   -1.3974    0.2470   11.7015 H   0  0  0  0  0  0  0  0  0  0  0  0
  1  2  1  0
  1 40  1  0
  1 41  1  0
  1 42  1  0
  2  3  1  0
  3  4  2  0
  3 37  1  0
  4  5  1  0
  4 43  1  0
  5  6  2  0
  5 44  1  0
  6  7  1  0
  6 36  1  0
  7  8  1  0
  7 45  1  0
  8  9  2  0
  8 16  1  0
  9 10  1  0
 10 11  2  0
 10 17  1  0
 11 12  1  0
 11 46  1  0
 12 13  1  0
 12 16  1  0
 13 14  2  0
 13 47  1  0
 14 15  1  0
 14 48  1  0
 15 16  2  0
 17 18  2  0
 17 22  1  0
 18 19  1  0
 18 49  1  0
 19 20  2  0
 19 50  1  0
 20 21  1  0
 20 51  1  0
 21 22  2  0
 21 23  1  0
 22 52  1  0
 23 24  2  0
 23 25  1  0
 25 26  1  0
 25 53  1  0
 26 27  2  0
 26 35  1  0
 27 28  1  0
 27 54  1  0
 28 29  2  0
 28 55  1  0
 29 30  1  0
 29 34  1  0
 30 31  1  0
 30 56  1  0
 30 57  1  0
 31 32  2  0
 31 33  1  0
 34 35  2  0
 34 58  1  0
 35 59  1  0
 36 37  2  0
 36 60  1  0
 37 38  1  0
 38 39  1  0
 39 61  1  0
 39 62  1  0
 39 63  1  0
M  CHG  1  33  -1
M  END
>  <s_m_entry_id>  (1) 
1081

>  <IC50[nM]>  (1) 
2.6

>  <s_m_Source_Path>  (1) 
/projects/mai/users/kmzp800_harry/pmx_colab/docking_jobs/syk

>  <s_m_Source_File>  (1) 
tnks2_lig.sdf

>  <i_m_Source_File_Index>  (1) 
15

>  <s_m_job_name>  (1) 
glide-dock_SP_syk_mcs

>  <r_i_docking_score>  (1) 
-8.09836208672704

>  <r_i_glide_gscore>  (1) 
-8.09836208672704

>  <r_i_glide_emodel>  (1) 
-82.5683699408997

>  <index_string>  (1) 
13:0:0

$$$$
