10:0:0
     RDKit          3D

 44 46  0  0  1  0  0  0  0  0999 V2000
  -14.8260  -19.3450  -25.7960 C   0  0  0  0  0  0  0  0  0  0  0  0
  -14.3810  -20.0510  -24.6720 C   0  0  0  0  0  0  0  0  0  0  0  0
  -14.9910  -20.0410  -27.0040 C   0  0  0  0  0  0  0  0  0  0  0  0
  -14.0820  -21.4080  -24.7670 C   0  0  0  0  0  0  0  0  0  0  0  0
  -14.7040  -21.3990  -27.0930 C   0  0  0  0  0  0  0  0  0  0  0  0
  -14.2420  -22.1020  -25.9770 C   0  0  0  0  0  0  0  0  0  0  0  0
  -15.0980  -17.8880  -25.7420 C   0  0  0  0  0  0  0  0  0  0  0  0
  -15.8550  -17.3620  -24.7060 N   0  0  0  0  0  0  0  0  0  0  0  0
  -16.2040  -16.0670  -24.4720 C   0  0  0  0  0  0  0  0  0  0  0  0
  -14.6700  -17.0690  -26.6460 N   0  0  0  0  0  0  0  0  0  0  0  0
  -14.9170  -15.6910  -26.5850 C   0  0  0  0  0  0  0  0  0  0  0  0
  -15.6520  -15.1330  -25.5310 C   0  0  0  0  0  0  0  0  0  0  0  0
  -15.8610  -13.7520  -25.4690 C   0  0  0  0  0  0  0  0  0  0  0  0
  -15.3310  -12.9370  -26.4740 C   0  0  0  0  0  0  0  0  0  0  0  0
  -14.6170  -13.4970  -27.5350 C   0  0  0  0  0  0  0  0  0  0  0  0
  -14.4110  -14.8750  -27.5980 C   0  0  0  0  0  0  0  0  0  0  0  0
  -16.9070  -15.7380  -23.5130 O   0  0  0  0  0  0  0  0  0  0  0  0
  -15.5140  -11.5980  -26.4320 F   0  0  0  0  0  0  0  0  0  0  0  0
  -13.8620  -23.6010  -26.0710 C   0  0  0  0  0  0  0  0  0  0  0  0
  -13.0940  -23.9940  -24.7940 C   0  0  0  0  0  0  0  0  0  0  0  0
  -13.0220  -23.7910  -27.3470 C   0  0  0  0  0  0  0  0  0  0  0  0
  -15.0560  -24.3930  -26.2490 O   0  0  0  0  0  0  0  0  0  0  0  0
  -15.3810  -25.0610  -27.4810 C   0  0  0  0  0  0  0  0  0  0  0  0
  -16.7680  -24.7640  -28.1060 C   0  0  0  0  0  0  0  0  0  0  0  0
  -16.8910  -25.1250  -29.4690 O   0  0  0  0  0  0  0  0  0  0  0  0
  -14.2669  -19.5315  -23.7091 H   0  0  0  0  0  0  0  0  0  0  0  0
  -15.3527  -19.5043  -27.8934 H   0  0  0  0  0  0  0  0  0  0  0  0
  -13.7146  -21.9446  -23.8798 H   0  0  0  0  0  0  0  0  0  0  0  0
  -14.8418  -21.9240  -28.0497 H   0  0  0  0  0  0  0  0  0  0  0  0
  -16.2013  -18.0459  -24.0181 H   0  0  0  0  0  0  0  0  0  0  0  0
  -16.4351  -13.3122  -24.6401 H   0  0  0  0  0  0  0  0  0  0  0  0
  -14.2144  -12.8474  -28.3262 H   0  0  0  0  0  0  0  0  0  0  0  0
  -13.8546  -15.3149  -28.4388 H   0  0  0  0  0  0  0  0  0  0  0  0
  -13.6763  -23.6960  -23.9096 H   0  0  0  0  0  0  0  0  0  0  0  0
  -12.9379  -25.0828  -24.7805 H   0  0  0  0  0  0  0  0  0  0  0  0
  -12.1196  -23.4837  -24.7805 H   0  0  0  0  0  0  0  0  0  0  0  0
  -11.9835  -24.0259  -27.0707 H   0  0  0  0  0  0  0  0  0  0  0  0
  -13.4393  -24.6174  -27.9410 H   0  0  0  0  0  0  0  0  0  0  0  0
  -13.0430  -22.8654  -27.9410 H   0  0  0  0  0  0  0  0  0  0  0  0
  -14.6177  -24.7789  -28.2212 H   0  0  0  0  0  0  0  0  0  0  0  0
  -15.4102  -26.1300  -27.2235 H   0  0  0  0  0  0  0  0  0  0  0  0
  -17.5272  -25.3182  -27.5347 H   0  0  0  0  0  0  0  0  0  0  0  0
  -16.9031  -23.6733  -28.0596 H   0  0  0  0  0  0  0  0  0  0  0  0
  -17.2096  -26.0600  -29.5353 H   0  0  0  0  0  0  0  0  0  0  0  0
  1  7  1  0
  1  2  2  0
  1  3  1  0
  2  4  1  0
  3  5  2  0
  4  6  2  0
  5  6  1  0
  6 19  1  0
  7  8  1  0
  7 10  2  0
  8  9  1  0
  9 17  2  0
  9 12  1  0
 10 11  1  0
 11 12  2  0
 11 16  1  0
 12 13  1  0
 13 14  2  0
 14 18  1  0
 14 15  1  0
 15 16  2  0
 19 20  1  0
 19 21  1  0
 19 22  1  0
 22 23  1  0
 23 24  1  0
 24 25  1  0
  2 26  1  0
  3 27  1  0
  4 28  1  0
  5 29  1  0
  8 30  1  0
 13 31  1  0
 15 32  1  0
 16 33  1  0
 20 34  1  0
 20 35  1  0
 20 36  1  0
 21 37  1  0
 21 38  1  0
 21 39  1  0
 23 40  1  0
 23 41  1  0
 24 42  1  0
 24 43  1  0
 25 44  1  0
M  END
>  <s_m_entry_id>  (1) 
2338

>  <MODEL>  (1) 
1

>  <REMARK>  (1) 
 VINA RESULT:   -10.423      0.000      0.000
 INTER + INTRA:         -14.391
 INTER:                 -13.775
 INTRA:                  -0.617
 UNBOUND:                -0.617
  Name = 5n
  8 active torsions:
  status: ('A' for Active; 'I' for Inactive)
    1  A    between atoms: C_1  and  C_4
    2  A    between atoms: C_7  and  C_18
    3  A    between atoms: C_18  and  C_19
    4  A    between atoms: C_18  and  C_20
    5  A    between atoms: C_18  and  O_21
    6  A    between atoms: O_21  and  C_23
    7  A    between atoms: C_23  and  C_24
    8  A    between atoms: C_24  and  O_25
                            x       y       z     vdW  Elec       q    Type
                         _______ _______ _______ _____ _____    ______ ____

>  <TORSDO>  (1) 
F 6

>  <s_m_Source_Path>  (1) 
/projects/mai/users/kmzp800_harry/pmx_colab/docking_jobs/tnks2/vina_prep/output

>  <s_m_Source_File>  (1) 
tnks_naive_vina.sdf

>  <i_m_Source_File_Index>  (1) 
11

>  <index_string>  (1) 
10:0:0

$$$$
