21:0:0
     RDKit          3D

 37 39  0  0  1  0  0  0  0  0999 V2000
  -15.1966  -19.2570  -25.9326 C   0  0  0  0  0  0  0  0  0  0  0  0
  -15.4353  -20.0961  -24.8211 C   0  0  0  0  0  0  0  0  0  0  0  0
  -14.7806  -19.8357  -27.1418 C   0  0  0  0  0  0  0  0  0  0  0  0
  -15.2028  -21.4855  -24.9213 C   0  0  0  0  0  0  0  0  0  0  0  0
  -14.5536  -21.2091  -27.2399 C   0  0  0  0  0  0  0  0  0  0  0  0
  -14.8482  -16.9959  -26.7651 N   0  0  0  0  0  0  0  0  0  0  0  0
  -14.7494  -22.0542  -26.1365 C   0  0  0  0  0  0  0  0  0  0  0  0
  -14.4280  -23.5437  -26.2403 C   0  0  0  0  0  0  0  0  0  0  0  0
  -16.3478  -15.9410  -24.6106 C   0  0  0  0  0  0  0  0  0  0  0  0
  -16.1129  -17.2405  -24.8118 N   0  0  0  0  0  0  0  0  0  0  0  0
  -15.3585  -17.7768  -25.8539 C   0  0  0  0  0  0  0  0  0  0  0  0
  -17.0071  -15.5729  -23.6492 O   0  0  0  0  0  0  0  0  0  0  0  0
  -15.6719  -24.3722  -25.9162 C   0  0  0  0  0  0  0  0  0  0  0  0
  -14.0639  -23.9720  -27.5386 O   0  0  0  0  0  0  0  0  0  0  0  0
  -13.2130  -23.8549  -25.3591 C   0  0  0  0  0  0  0  0  0  0  0  0
  -15.0333  -15.6029  -26.7002 C   0  0  0  0  0  0  0  0  0  0  0  0
  -15.7344  -15.0136  -25.6208 C   0  0  0  0  0  0  0  0  0  0  0  0
  -15.8071  -13.6045  -25.5178 C   0  0  0  0  0  0  0  0  0  0  0  0
  -15.1780  -12.7892  -26.4748 C   0  0  0  0  0  0  0  0  0  0  0  0
  -14.4976  -13.3712  -27.5534 C   0  0  0  0  0  0  0  0  0  0  0  0
  -14.4474  -14.7711  -27.6794 C   0  0  0  0  0  0  0  0  0  0  0  0
  -13.7635  -15.3061  -28.7177 F   0  0  0  0  0  0  0  0  0  0  0  0
  -16.4473  -13.0108  -24.4916 F   0  0  0  0  0  0  0  0  0  0  0  0
  -15.7592  -19.6906  -23.8731 H   0  0  0  0  0  0  0  0  0  0  0  0
  -14.5869  -19.2258  -28.0126 H   0  0  0  0  0  0  0  0  0  0  0  0
  -15.3553  -22.1072  -24.0520 H   0  0  0  0  0  0  0  0  0  0  0  0
  -14.1862  -21.5727  -28.1805 H   0  0  0  0  0  0  0  0  0  0  0  0
  -16.5582  -17.8809  -24.1657 H   0  0  0  0  0  0  0  0  0  0  0  0
  -16.0400  -24.1599  -24.9137 H   0  0  0  0  0  0  0  0  0  0  0  0
  -15.4886  -25.4430  -25.9454 H   0  0  0  0  0  0  0  0  0  0  0  0
  -16.4834  -24.1576  -26.6122 H   0  0  0  0  0  0  0  0  0  0  0  0
  -13.8680  -24.8965  -27.5060 H   0  0  0  0  0  0  0  0  0  0  0  0
  -13.4390  -23.7392  -24.2988 H   0  0  0  0  0  0  0  0  0  0  0  0
  -12.8469  -24.8671  -25.5219 H   0  0  0  0  0  0  0  0  0  0  0  0
  -12.3900  -23.1809  -25.5920 H   0  0  0  0  0  0  0  0  0  0  0  0
  -15.2127  -11.7148  -26.3841 H   0  0  0  0  0  0  0  0  0  0  0  0
  -14.0149  -12.7403  -28.2858 H   0  0  0  0  0  0  0  0  0  0  0  0
  1  2  2  0
  1  3  1  0
  1 11  1  0
  2  4  1  0
  2 24  1  0
  3  5  2  0
  3 25  1  0
  4  7  2  0
  4 26  1  0
  5  7  1  0
  5 27  1  0
  6 11  2  0
  6 16  1  0
  7  8  1  0
  8 13  1  0
  8 14  1  0
  8 15  1  0
  9 10  1  0
  9 12  2  0
  9 17  1  0
 10 11  1  0
 10 28  1  0
 13 29  1  0
 13 30  1  0
 13 31  1  0
 14 32  1  0
 15 33  1  0
 15 34  1  0
 15 35  1  0
 16 17  2  0
 16 21  1  0
 17 18  1  0
 18 19  2  0
 18 23  1  0
 19 20  1  0
 19 36  1  0
 20 21  2  0
 20 37  1  0
 21 22  1  0
M  END
>  <s_m_entry_id>  (1) 
463

>  <Name>  (1) 
5l

>  <IC50[nM]>  (1) 
40

>  <s_m_Source_Path>  (1) 
/projects/mai/users/kmzp800_harry/pmx_colab/docking_jobs/tnks2

>  <s_m_Source_File>  (1) 
tnks2_lig.sdf

>  <i_m_Source_File_Index>  (1) 
22

>  <s_m_job_name>  (1) 
glide-dock_SP_tnks2_core_const

>  <r_i_docking_score>  (1) 
-10.4022020593683

>  <r_i_glide_gscore>  (1) 
-10.4022020593683

>  <r_i_glide_emodel>  (1) 
-56.6231910955276

>  <index_string>  (1) 
21:0:0

$$$$
