14:0:0
     RDKit          3D

 39 43  0  0  1  0  0  0  0  0999 V2000
    1.6191   -1.3555   15.2870 N   0  0  0  0  0  0  0  0  0  0  0  0
    0.2503   -1.5715   15.0674 C   0  0  0  0  0  0  0  0  0  0  0  0
   -0.5358   -0.8286   14.1583 C   0  0  0  0  0  0  0  0  0  0  0  0
   -1.9114   -1.0948   14.0165 C   0  0  0  0  0  0  0  0  0  0  0  0
   -2.5199   -2.0917   14.7996 C   0  0  0  0  0  0  0  0  0  0  0  0
   -1.7452   -2.8373   15.7022 C   0  0  0  0  0  0  0  0  0  0  0  0
   -0.3691   -2.5910   15.8174 C   0  0  0  0  0  0  0  0  0  0  0  0
    2.5285   -0.4377   14.7275 C   0  0  0  0  0  0  0  0  0  0  0  0
    2.1917    0.3751   13.7621 N   0  0  0  0  0  0  0  0  0  0  0  0
    3.1187    1.2526   13.2373 C   0  0  0  0  0  0  0  0  0  0  0  0
    4.4198    1.2865   13.6828 C   0  0  0  0  0  0  0  0  0  0  0  0
    4.7562    0.4868   14.7283 N   0  0  0  0  0  0  0  0  0  0  0  0
    5.9060    0.3786   15.4832 C   0  0  0  0  0  0  0  0  0  0  0  0
    5.6110   -0.5049   16.4902 C   0  0  0  0  0  0  0  0  0  0  0  0
    4.3609   -1.0618   16.3299 N   0  0  0  0  0  0  0  0  0  0  0  0
    3.8286   -0.4141   15.2965 C   0  0  0  0  0  0  0  0  0  0  0  0
    2.6468    2.1620   12.1636 C   0  0  0  0  0  0  0  0  0  0  0  0
    3.5544    2.6642   11.1910 C   0  0  0  0  0  0  0  0  0  0  0  0
    3.1431    3.4901   10.1299 C   0  0  0  0  0  0  0  0  0  0  0  0
    1.7862    3.8566   10.0269 C   0  0  0  0  0  0  0  0  0  0  0  0
    0.9827    4.6292    9.1364 C   0  0  0  0  0  0  0  0  0  0  0  0
   -0.2725    4.6487    9.5164 N   0  0  0  0  0  0  0  0  0  0  0  0
   -0.3325    3.9084   10.6497 N   0  0  0  0  0  0  0  0  0  0  0  0
    0.8855    3.3816   11.0252 C   0  0  0  0  0  0  0  0  0  0  0  0
    1.2915    2.5483   12.0793 C   0  0  0  0  0  0  0  0  0  0  0  0
    2.0527   -1.9987   15.9441 H   0  0  0  0  0  0  0  0  0  0  0  0
   -0.0992   -0.0504   13.5601 H   0  0  0  0  0  0  0  0  0  0  0  0
   -2.4985   -0.5345   13.3056 H   0  0  0  0  0  0  0  0  0  0  0  0
   -3.5746   -2.2958   14.7114 H   0  0  0  0  0  0  0  0  0  0  0  0
   -2.1956   -3.6035   16.3117 H   0  0  0  0  0  0  0  0  0  0  0  0
    0.2015   -3.1970   16.5037 H   0  0  0  0  0  0  0  0  0  0  0  0
    5.1904    1.9421   13.2986 H   0  0  0  0  0  0  0  0  0  0  0  0
    6.7731    0.9759   15.2349 H   0  0  0  0  0  0  0  0  0  0  0  0
    6.1805   -0.7796   17.3507 H   0  0  0  0  0  0  0  0  0  0  0  0
    4.5952    2.3917   11.2344 H   0  0  0  0  0  0  0  0  0  0  0  0
    3.8701    3.8308    9.4024 H   0  0  0  0  0  0  0  0  0  0  0  0
    1.2809    5.1625    8.2457 H   0  0  0  0  0  0  0  0  0  0  0  0
   -1.2125    3.7922   11.1321 H   0  0  0  0  0  0  0  0  0  0  0  0
    0.5768    2.1967   12.8129 H   0  0  0  0  0  0  0  0  0  0  0  0
  1  2  1  0
  1  8  1  0
  1 26  1  0
  2  3  2  0
  2  7  1  0
  3  4  1  0
  3 27  1  0
  4  5  2  0
  4 28  1  0
  5  6  1  0
  5 29  1  0
  6  7  2  0
  6 30  1  0
  7 31  1  0
  8  9  2  0
  8 16  1  0
  9 10  1  0
 10 11  2  0
 10 17  1  0
 11 12  1  0
 11 32  1  0
 12 13  1  0
 12 16  1  0
 13 14  2  0
 13 33  1  0
 14 15  1  0
 14 34  1  0
 15 16  2  0
 17 18  2  0
 17 25  1  0
 18 19  1  0
 18 35  1  0
 19 20  2  0
 19 36  1  0
 20 21  1  0
 20 24  1  0
 21 22  2  0
 21 37  1  0
 22 23  1  0
 23 24  1  0
 23 38  1  0
 24 25  2  0
 25 39  1  0
M  END
>  <s_m_entry_id>  (1) 
1106

>  <IC50[nM]>  (1) 
26.8

>  <s_m_Source_Path>  (1) 
/projects/mai/users/kmzp800_harry/pmx_colab/docking_jobs/syk

>  <s_m_Source_File>  (1) 
tnks2_lig.sdf

>  <i_m_Source_File_Index>  (1) 
16

>  <s_m_job_name>  (1) 
glide-dock_SP_syk_mcs

>  <r_i_docking_score>  (1) 
-6.76099114935286

>  <r_i_glide_gscore>  (1) 
-6.76099114935286

>  <r_i_glide_emodel>  (1) 
-39.2015032658172

>  <index_string>  (1) 
14:0:0

$$$$
