41:0:0
     RDKit          3D

 48 52  0  0  1  0  0  0  0  0999 V2000
   -4.5936   -2.9987   15.8420 C   0  0  0  0  0  0  0  0  0  0  0  0
   -3.9683   -2.1205   14.9158 O   0  0  0  0  0  0  0  0  0  0  0  0
   -2.5945   -1.9999   14.9669 C   0  0  0  0  0  0  0  0  0  0  0  0
   -1.7648   -2.8139   15.7766 C   0  0  0  0  0  0  0  0  0  0  0  0
   -0.3763   -2.6000   15.8174 C   0  0  0  0  0  0  0  0  0  0  0  0
    0.2209   -1.5722   15.0648 C   0  0  0  0  0  0  0  0  0  0  0  0
    1.6021   -1.3823   15.2537 N   0  0  0  0  0  0  0  0  0  0  0  0
    2.5187   -0.4532   14.7319 C   0  0  0  0  0  0  0  0  0  0  0  0
    2.1793    0.3493   13.7636 N   0  0  0  0  0  0  0  0  0  0  0  0
    3.0881    1.2533   13.2720 C   0  0  0  0  0  0  0  0  0  0  0  0
    4.3891    1.3269   13.7133 C   0  0  0  0  0  0  0  0  0  0  0  0
    4.7471    0.4892   14.7296 N   0  0  0  0  0  0  0  0  0  0  0  0
    5.8947    0.3818   15.4962 C   0  0  0  0  0  0  0  0  0  0  0  0
    5.5908   -0.4924   16.5135 C   0  0  0  0  0  0  0  0  0  0  0  0
    4.3379   -1.0441   16.3493 N   0  0  0  0  0  0  0  0  0  0  0  0
    3.8202   -0.4212   15.2955 C   0  0  0  0  0  0  0  0  0  0  0  0
    2.5231    2.2648   12.3639 C   0  0  0  0  0  0  0  0  0  0  0  0
    1.2100    2.7610   12.5541 C   0  0  0  0  0  0  0  0  0  0  0  0
    0.6959    3.7820   11.7364 C   0  0  0  0  0  0  0  0  0  0  0  0
    1.5087    4.3170   10.7263 C   0  0  0  0  0  0  0  0  0  0  0  0
    1.3150    5.3211    9.7992 N   0  0  0  0  0  0  0  0  0  0  0  0
    2.4463    5.4851    9.0176 C   0  0  0  0  0  0  0  0  0  0  0  0
    3.3879    4.5707    9.4104 C   0  0  0  0  0  0  0  0  0  0  0  0
    2.8271    3.8356   10.4962 C   0  0  0  0  0  0  0  0  0  0  0  0
    3.3087    2.8040   11.3257 C   0  0  0  0  0  0  0  0  0  0  0  0
   -0.6025   -0.7927   14.2186 C   0  0  0  0  0  0  0  0  0  0  0  0
   -2.0052   -0.9964   14.1660 C   0  0  0  0  0  0  0  0  0  0  0  0
   -2.8550   -0.2363   13.3857 O   0  0  0  0  0  0  0  0  0  0  0  0
   -2.2812    0.6649   12.4472 C   0  0  0  0  0  0  0  0  0  0  0  0
   -5.6753   -2.9262   15.7327 H   0  0  0  0  0  0  0  0  0  0  0  0
   -4.3482   -2.7343   16.8722 H   0  0  0  0  0  0  0  0  0  0  0  0
   -4.3128   -4.0372   15.6587 H   0  0  0  0  0  0  0  0  0  0  0  0
   -2.1686   -3.5969   16.4012 H   0  0  0  0  0  0  0  0  0  0  0  0
    0.2269   -3.2157   16.4708 H   0  0  0  0  0  0  0  0  0  0  0  0
    2.0152   -1.9692   15.9679 H   0  0  0  0  0  0  0  0  0  0  0  0
    5.1141    2.0646   13.3865 H   0  0  0  0  0  0  0  0  0  0  0  0
    6.7504    1.0083   15.2951 H   0  0  0  0  0  0  0  0  0  0  0  0
    6.1062   -0.7358   17.4217 H   0  0  0  0  0  0  0  0  0  0  0  0
    0.5971    2.3763   13.3560 H   0  0  0  0  0  0  0  0  0  0  0  0
   -0.2987    4.1659   11.9008 H   0  0  0  0  0  0  0  0  0  0  0  0
    0.4848    5.8878    9.7000 H   0  0  0  0  0  0  0  0  0  0  0  0
    2.4857    6.2373    8.2434 H   0  0  0  0  0  0  0  0  0  0  0  0
    4.3764    4.4082    9.0173 H   0  0  0  0  0  0  0  0  0  0  0  0
    4.3104    2.4360   11.1639 H   0  0  0  0  0  0  0  0  0  0  0  0
   -0.1735   -0.0060   13.6273 H   0  0  0  0  0  0  0  0  0  0  0  0
   -3.0702    1.0943   11.8302 H   0  0  0  0  0  0  0  0  0  0  0  0
   -1.7705    1.4880   12.9486 H   0  0  0  0  0  0  0  0  0  0  0  0
   -1.5827    0.1591   11.7782 H   0  0  0  0  0  0  0  0  0  0  0  0
  1  2  1  0
  1 30  1  0
  1 31  1  0
  1 32  1  0
  2  3  1  0
  3  4  2  0
  3 27  1  0
  4  5  1  0
  4 33  1  0
  5  6  2  0
  5 34  1  0
  6  7  1  0
  6 26  1  0
  7  8  1  0
  7 35  1  0
  8  9  2  0
  8 16  1  0
  9 10  1  0
 10 11  2  0
 10 17  1  0
 11 12  1  0
 11 36  1  0
 12 13  1  0
 12 16  1  0
 13 14  2  0
 13 37  1  0
 14 15  1  0
 14 38  1  0
 15 16  2  0
 17 18  2  0
 17 25  1  0
 18 19  1  0
 18 39  1  0
 19 20  2  0
 19 40  1  0
 20 21  1  0
 20 24  1  0
 21 22  1  0
 21 41  1  0
 22 23  2  0
 22 42  1  0
 23 24  1  0
 23 43  1  0
 24 25  2  0
 25 44  1  0
 26 27  2  0
 26 45  1  0
 27 28  1  0
 28 29  1  0
 29 46  1  0
 29 47  1  0
 29 48  1  0
M  END
>  <s_m_entry_id>  (1) 
1028

>  <IC50[nM]>  (1) 
8.6

>  <s_m_Source_Path>  (1) 
/projects/mai/users/kmzp800_harry/pmx_colab/docking_jobs/syk

>  <s_m_Source_File>  (1) 
tnks2_lig.sdf

>  <i_m_Source_File_Index>  (1) 
42

>  <s_m_job_name>  (1) 
glide-dock_SP_tnks2_core_const

>  <r_i_docking_score>  (1) 
-7.31517042029427

>  <r_i_glide_gscore>  (1) 
-7.31517042029427

>  <r_i_glide_emodel>  (1) 
-50.2259337566128

>  <index_string>  (1) 
41:0:0

$$$$
