15:0:0
     RDKit          3D

 63 66  0  0  1  0  0  0  0  0999 V2000
   40.9980    9.9840   18.4440 C   0  0  0  0  0  0  0  0  0  0  0  0
   41.9320    8.9560   18.2890 C   0  0  0  0  0  0  0  0  0  0  0  0
   43.0630    9.1490   17.4900 C   0  0  0  0  0  0  0  0  0  0  0  0
   43.2640   10.3740   16.8460 C   0  0  0  0  0  0  0  0  0  0  0  0
   42.3390   11.4170   16.9920 C   0  0  0  0  0  0  0  0  0  0  0  0
   41.2100   11.2070   17.7940 C   0  0  0  0  0  0  0  0  0  0  0  0
   42.5310   12.7310   16.3350 C   0  0  0  0  0  0  0  0  0  0  0  0
   43.5080   13.9610   16.9480 S   0  0  0  0  0  0  0  0  0  0  0  0
   43.2490   15.0770   15.7200 C   0  0  0  0  0  0  0  0  0  0  0  0
   42.3910   14.4890   14.7790 C   0  0  0  0  0  0  0  0  0  0  0  0
   41.9770   13.1940   15.1340 C   0  0  0  0  0  0  0  0  0  0  0  0
   41.0560   12.3990   14.2680 C   0  0  0  0  0  0  0  0  0  0  0  0
   43.7610   16.4570   15.7570 C   0  0  0  0  0  0  0  0  0  0  0  0
   42.9770   17.4220   15.5630 O   0  0  0  0  0  0  0  0  0  0  0  0
   45.1150   16.7100   15.9380 O   0  0  0  0  0  0  0  0  0  0  0  0
   41.9810   15.0720   13.5720 O   0  0  0  0  0  0  0  0  0  0  0  0
   40.7470   15.7610   13.4110 C   0  0  0  0  0  0  0  0  0  0  0  0
   40.9590   17.0390   12.6740 C   0  0  0  0  0  0  0  0  0  0  0  0
   41.1490   17.0240   11.4310 O   0  0  0  0  0  0  0  0  0  0  0  0
   40.9080   18.2490   13.3540 O   0  0  0  0  0  0  0  0  0  0  0  0
   39.8440    9.7680   19.2680 N   0  0  0  0  0  0  0  0  0  0  0  0
   37.1930    6.8240   17.7920 N   0  0  0  0  0  0  0  0  0  0  0  0
   37.4200    7.9820   16.9080 C   0  0  0  0  0  0  0  0  0  0  0  0
   38.5570    8.9140   17.3530 C   0  0  0  0  0  0  0  0  0  0  0  0
   38.6760    8.9810   18.8790 C   0  0  0  0  0  0  0  0  0  0  0  0
   38.7220    7.5970   19.5410 C   0  0  0  0  0  0  0  0  0  0  0  0
   38.3930    6.4790   18.5550 C   0  0  0  0  0  0  0  0  0  0  0  0
   36.8230    5.4650   16.7810 S   0  0  0  0  0  0  0  0  0  0  0  0
   37.2410    4.1990   17.4770 O   0  0  0  0  0  0  0  0  0  0  0  0
   35.3420    5.4170   16.5260 O   0  0  0  0  0  0  0  0  0  0  0  0
   37.6900    5.6040   15.2240 C   0  0  0  0  0  0  0  0  0  0  0  0
   34.9670    5.5130   11.9150 C   0  0  0  0  0  0  0  0  0  0  0  0
   35.6040    4.3400   12.3280 C   0  0  0  0  0  0  0  0  0  0  0  0
   36.4910    4.3680   13.4090 C   0  0  0  0  0  0  0  0  0  0  0  0
   36.7390    5.5710   14.0780 C   0  0  0  0  0  0  0  0  0  0  0  0
   36.1040    6.7460   13.6610 C   0  0  0  0  0  0  0  0  0  0  0  0
   35.2170    6.7170   12.5800 C   0  0  0  0  0  0  0  0  0  0  0  0
   41.7769    7.9927   18.7969 H   0  0  0  0  0  0  0  0  0  0  0  0
   43.7950    8.3370   17.3679 H   0  0  0  0  0  0  0  0  0  0  0  0
   44.1560   10.5204   16.2192 H   0  0  0  0  0  0  0  0  0  0  0  0
   40.4761   12.0173   17.9158 H   0  0  0  0  0  0  0  0  0  0  0  0
   40.3746   11.8108   14.9003 H   0  0  0  0  0  0  0  0  0  0  0  0
   40.4706   13.0802   13.6329 H   0  0  0  0  0  0  0  0  0  0  0  0
   41.6444   11.7204   13.6329 H   0  0  0  0  0  0  0  0  0  0  0  0
   40.0490   15.1271   12.8444 H   0  0  0  0  0  0  0  0  0  0  0  0
   40.3313   15.9861   14.4042 H   0  0  0  0  0  0  0  0  0  0  0  0
   39.8383   10.1996   20.2032 H   0  0  0  0  0  0  0  0  0  0  0  0
   37.6595    7.6045   15.9030 H   0  0  0  0  0  0  0  0  0  0  0  0
   36.4976    8.5807   16.9360 H   0  0  0  0  0  0  0  0  0  0  0  0
   39.5053    8.5414   16.9383 H   0  0  0  0  0  0  0  0  0  0  0  0
   38.3332    9.9256   16.9836 H   0  0  0  0  0  0  0  0  0  0  0  0
   37.7627    9.4753   19.2417 H   0  0  0  0  0  0  0  0  0  0  0  0
   39.7319    7.4295   19.9435 H   0  0  0  0  0  0  0  0  0  0  0  0
   37.9663    7.5779   20.3401 H   0  0  0  0  0  0  0  0  0  0  0  0
   38.2171    5.5448   19.1085 H   0  0  0  0  0  0  0  0  0  0  0  0
   39.2371    6.3477   17.8620 H   0  0  0  0  0  0  0  0  0  0  0  0
   38.2439    6.5542   15.2044 H   0  0  0  0  0  0  0  0  0  0  0  0
   38.3807    4.7530   15.1306 H   0  0  0  0  0  0  0  0  0  0  0  0
   34.2682    5.4891   11.0658 H   0  0  0  0  0  0  0  0  0  0  0  0
   35.4077    3.3938   11.8025 H   0  0  0  0  0  0  0  0  0  0  0  0
   36.9933    3.4445   13.7329 H   0  0  0  0  0  0  0  0  0  0  0  0
   36.3025    7.6933   14.1837 H   0  0  0  0  0  0  0  0  0  0  0  0
   34.7166    7.6406   12.2534 H   0  0  0  0  0  0  0  0  0  0  0  0
  1 21  1  0
  1  2  2  0
  1  6  1  0
  2  3  1  0
  2 38  1  0
  3  4  2  0
  3 39  1  0
  4  5  1  0
  4 40  1  0
  5  6  2  0
  5  7  1  0
  6 41  1  0
  7  8  1  0
  7 11  2  0
  8  9  1  0
  9 13  1  0
  9 10  2  0
 10 11  1  0
 10 16  1  0
 11 12  1  0
 12 42  1  0
 12 43  1  0
 12 44  1  0
 13 15  1  0
 13 14  2  0
 16 17  1  0
 17 18  1  0
 17 45  1  0
 17 46  1  0
 18 20  1  0
 18 19  2  0
 21 25  1  0
 21 47  1  0
 22 27  1  0
 22 23  1  0
 22 28  1  0
 23 24  1  0
 23 48  1  0
 23 49  1  0
 24 25  1  0
 24 50  1  0
 24 51  1  0
 25 26  1  0
 25 52  1  0
 26 27  1  0
 26 53  1  0
 26 54  1  0
 27 55  1  0
 27 56  1  0
 28 29  2  0
 28 30  2  0
 28 31  1  0
 31 35  1  0
 31 57  1  0
 31 58  1  0
 32 33  2  0
 32 37  1  0
 32 59  1  0
 33 34  1  0
 33 60  1  0
 34 35  2  0
 34 61  1  0
 35 36  1  0
 36 37  2  0
 36 62  1  0
 37 63  1  0
M  CHG  2  15  -1  20  -1
M  END
>  <s_m_entry_id>  (1) 
1232

>  <MODEL>  (1) 
4

>  <REMARK>  (1) 
 VINA RESULT:    -7.502      1.218      1.701
 INTER + INTRA:         -13.261
 INTER:                 -11.955
 INTRA:                  -1.306
 UNBOUND:                -1.374
  Name = /scratch/kmzp800/tmprbcyn43_/tmp0ay5lb5a.pdb
  11 active torsions:
  status: ('A' for Active; 'I' for Inactive)
    1  A    between atoms: C4_4  and  C5_5
    2  A    between atoms: C5_5  and  S1_6
    3  A    between atoms: S1_6  and  N1_9
    4  A    between atoms: C8_12  and  N2_13
    5  A    between atoms: N2_13  and  C9_14
    6  A    between atoms: C13_18  and  C14_19
    7  A    between atoms: C15_21  and  C16_22
    8  A    between atoms: C17_25  and  O5_26
    9  A    between atoms: O5_26  and  C18_27
   10  A    between atoms: C18_27  and  C19_28
   11  A    between atoms: C20_31  and  C21_32
                            x       y       z     vdW  Elec       q    Type
                         _______ _______ _______ _____ _____    ______ ____

>  <TORSDO>  (1) 
F 10

>  <grid_id>  (1) 
ptp1b-prepared

>  <grid_path>  (1) 
ptp1b_vina.pdbqt

>  <grid_filename>  (1) 
ptp1b_vina.pdbqt

>  <docking_score>  (1) 
-7.502

>  <compound_name>  (1) 
lig_23485

>  <index_string>  (1) 
15:0:0

>  <s_m_Source_Path>  (1) 
/projects/mai/users/kmzp800_harry/pmx_colab/docking_jobs/ptp1b

>  <s_m_Source_File>  (1) 
ptp1b_confs_vina_mcs.sdf

>  <i_m_Source_File_Index>  (1) 
16

$$$$
