37:0:0
     RDKit          3D

 51 55  0  0  1  0  0  0  0  0999 V2000
   -4.5034   -3.4236   14.7524 C   0  0  0  0  0  0  0  0  0  0  0  0
   -3.8885   -2.2465   14.2461 O   0  0  0  0  0  0  0  0  0  0  0  0
   -2.5484   -2.0511   14.5101 C   0  0  0  0  0  0  0  0  0  0  0  0
   -1.7508   -2.9533   15.2558 C   0  0  0  0  0  0  0  0  0  0  0  0
   -0.3889   -2.6829   15.4818 C   0  0  0  0  0  0  0  0  0  0  0  0
    0.2144   -1.5220   14.9613 C   0  0  0  0  0  0  0  0  0  0  0  0
    1.5733   -1.3122   15.2618 N   0  0  0  0  0  0  0  0  0  0  0  0
    2.5263   -0.4302   14.7282 C   0  0  0  0  0  0  0  0  0  0  0  0
    2.2024    0.3807   13.7550 N   0  0  0  0  0  0  0  0  0  0  0  0
    3.1226    1.2719   13.2457 C   0  0  0  0  0  0  0  0  0  0  0  0
    4.4301    1.2999   13.6845 C   0  0  0  0  0  0  0  0  0  0  0  0
    4.7616    0.4796   14.7163 N   0  0  0  0  0  0  0  0  0  0  0  0
    5.9100    0.3711   15.4763 C   0  0  0  0  0  0  0  0  0  0  0  0
    5.6066   -0.4975   16.4895 C   0  0  0  0  0  0  0  0  0  0  0  0
    4.3599   -1.0626   16.3219 N   0  0  0  0  0  0  0  0  0  0  0  0
    3.8280   -0.4168   15.2909 C   0  0  0  0  0  0  0  0  0  0  0  0
    2.6353    2.2426   12.2303 C   0  0  0  0  0  0  0  0  0  0  0  0
    3.4987    2.7658   11.2359 C   0  0  0  0  0  0  0  0  0  0  0  0
    3.0251    3.6376   10.2348 C   0  0  0  0  0  0  0  0  0  0  0  0
    1.6739    4.0214   10.2099 C   0  0  0  0  0  0  0  0  0  0  0  0
    1.2321    4.8356    9.1905 O   0  0  0  0  0  0  0  0  0  0  0  0
   -0.1858    4.8719    9.0065 C   0  0  0  0  0  0  0  0  0  0  0  0
   -0.8908    5.0479   10.3608 C   0  0  0  0  0  0  0  0  0  0  0  0
   -0.5347    3.9699   11.2725 N   0  0  0  0  0  0  0  0  0  0  0  0
    0.8088    3.5714   11.2374 C   0  0  0  0  0  0  0  0  0  0  0  0
    1.2946    2.6950   12.2295 C   0  0  0  0  0  0  0  0  0  0  0  0
   -0.5850   -0.6274   14.2108 C   0  0  0  0  0  0  0  0  0  0  0  0
   -1.9582   -0.8819   13.9772 C   0  0  0  0  0  0  0  0  0  0  0  0
   -2.7781   -0.0374   13.2503 O   0  0  0  0  0  0  0  0  0  0  0  0
   -2.1763    1.0291   12.5294 C   0  0  0  0  0  0  0  0  0  0  0  0
   -5.5563   -3.4343   14.4653 H   0  0  0  0  0  0  0  0  0  0  0  0
   -4.4606   -3.4624   15.8451 H   0  0  0  0  0  0  0  0  0  0  0  0
   -4.0466   -4.3254   14.3405 H   0  0  0  0  0  0  0  0  0  0  0  0
   -2.1595   -3.8598   15.6726 H   0  0  0  0  0  0  0  0  0  0  0  0
    0.1941   -3.3847   16.0611 H   0  0  0  0  0  0  0  0  0  0  0  0
    1.9685   -1.9503   15.9429 H   0  0  0  0  0  0  0  0  0  0  0  0
    5.1921    1.9883   13.3305 H   0  0  0  0  0  0  0  0  0  0  0  0
    6.7760    0.9791   15.2683 H   0  0  0  0  0  0  0  0  0  0  0  0
    6.1392   -0.7629   17.3791 H   0  0  0  0  0  0  0  0  0  0  0  0
    4.5360    2.4699   11.2064 H   0  0  0  0  0  0  0  0  0  0  0  0
    3.6934    3.9925    9.4641 H   0  0  0  0  0  0  0  0  0  0  0  0
   -0.4332    5.6993    8.3448 H   0  0  0  0  0  0  0  0  0  0  0  0
   -0.5114    3.9605    8.5105 H   0  0  0  0  0  0  0  0  0  0  0  0
   -0.6037    6.0046   10.8084 H   0  0  0  0  0  0  0  0  0  0  0  0
   -1.9746    5.0562   10.2208 H   0  0  0  0  0  0  0  0  0  0  0  0
   -1.0402    3.9161   12.1472 H   0  0  0  0  0  0  0  0  0  0  0  0
    0.6254    2.3550   13.0016 H   0  0  0  0  0  0  0  0  0  0  0  0
   -0.1579    0.2805   13.8295 H   0  0  0  0  0  0  0  0  0  0  0  0
   -2.9349    1.5289   11.9280 H   0  0  0  0  0  0  0  0  0  0  0  0
   -1.7525    1.7724   13.2075 H   0  0  0  0  0  0  0  0  0  0  0  0
   -1.4041    0.6702   11.8468 H   0  0  0  0  0  0  0  0  0  0  0  0
  1  2  1  0
  1 31  1  0
  1 32  1  0
  1 33  1  0
  2  3  1  0
  3  4  2  0
  3 28  1  0
  4  5  1  0
  4 34  1  0
  5  6  2  0
  5 35  1  0
  6  7  1  0
  6 27  1  0
  7  8  1  0
  7 36  1  0
  8  9  2  0
  8 16  1  0
  9 10  1  0
 10 11  2  0
 10 17  1  0
 11 12  1  0
 11 37  1  0
 12 13  1  0
 12 16  1  0
 13 14  2  0
 13 38  1  0
 14 15  1  0
 14 39  1  0
 15 16  2  0
 17 18  2  0
 17 26  1  0
 18 19  1  0
 18 40  1  0
 19 20  2  0
 19 41  1  0
 20 21  1  0
 20 25  1  0
 21 22  1  0
 22 23  1  0
 22 42  1  0
 22 43  1  0
 23 24  1  0
 23 44  1  0
 23 45  1  0
 24 25  1  0
 24 46  1  0
 25 26  2  0
 26 47  1  0
 27 28  2  0
 27 48  1  0
 28 29  1  0
 29 30  1  0
 30 49  1  0
 30 50  1  0
 30 51  1  0
M  END
>  <s_m_entry_id>  (1) 
1024

>  <IC50[nM]>  (1) 
4.7

>  <s_m_Source_Path>  (1) 
/projects/mai/users/kmzp800_harry/pmx_colab/docking_jobs/syk

>  <s_m_Source_File>  (1) 
tnks2_lig.sdf

>  <i_m_Source_File_Index>  (1) 
38

>  <s_m_job_name>  (1) 
glide-dock_SP_tnks2_core_const

>  <r_i_docking_score>  (1) 
-7.26368339850026

>  <r_i_glide_gscore>  (1) 
-7.26368339850026

>  <r_i_glide_emodel>  (1) 
-50.324264105167

>  <index_string>  (1) 
37:0:0

$$$$
