18:0:0
     RDKit          3D

 47 51  0  0  1  0  0  0  0  0999 V2000
   -4.1124   -1.7847   15.1875 C   0  0  0  0  0  0  0  0  0  0  0  0
   -3.4892   -0.8925   14.2732 O   0  0  0  0  0  0  0  0  0  0  0  0
   -2.1090   -0.8786   14.2173 C   0  0  0  0  0  0  0  0  0  0  0  0
   -1.2819   -1.7047   15.0173 C   0  0  0  0  0  0  0  0  0  0  0  0
    0.1184   -1.6074   14.9394 C   0  0  0  0  0  0  0  0  0  0  0  0
    0.7295   -0.6965   14.0572 C   0  0  0  0  0  0  0  0  0  0  0  0
    2.1353   -0.6557   14.0545 N   0  0  0  0  0  0  0  0  0  0  0  0
    3.0152    0.4128   13.8111 C   0  0  0  0  0  0  0  0  0  0  0  0
    2.6732    1.3880   13.0175 N   0  0  0  0  0  0  0  0  0  0  0  0
    3.5462    2.4324   12.8194 C   0  0  0  0  0  0  0  0  0  0  0  0
    4.7884    2.4989   13.3951 C   0  0  0  0  0  0  0  0  0  0  0  0
    5.1346    1.4906   14.2331 N   0  0  0  0  0  0  0  0  0  0  0  0
    6.2524    1.2860   15.0174 C   0  0  0  0  0  0  0  0  0  0  0  0
    6.0301    0.1406   15.7294 C   0  0  0  0  0  0  0  0  0  0  0  0
    4.7916   -0.3960   15.4174 N   0  0  0  0  0  0  0  0  0  0  0  0
    4.2680    0.4040   14.4902 C   0  0  0  0  0  0  0  0  0  0  0  0
    3.0543    3.5145   11.9581 C   0  0  0  0  0  0  0  0  0  0  0  0
    2.7881    3.2716   10.5934 C   0  0  0  0  0  0  0  0  0  0  0  0
    2.3089    4.2920    9.7453 C   0  0  0  0  0  0  0  0  0  0  0  0
    2.0792    5.5880   10.2545 C   0  0  0  0  0  0  0  0  0  0  0  0
    1.6176    6.7323    9.6221 N   0  0  0  0  0  0  0  0  0  0  0  0
    1.6302    7.6152   10.6194 C   0  0  0  0  0  0  0  0  0  0  0  0
    2.0244    7.1562   11.8174 N   0  0  0  0  0  0  0  0  0  0  0  0
    2.3515    5.8231   11.6361 C   0  0  0  0  0  0  0  0  0  0  0  0
    2.8410    4.8094   12.4794 C   0  0  0  0  0  0  0  0  0  0  0  0
   -0.0942    0.0977   13.2257 C   0  0  0  0  0  0  0  0  0  0  0  0
   -1.5095    0.0218   13.3081 C   0  0  0  0  0  0  0  0  0  0  0  0
   -2.3625    0.7981   12.5486 O   0  0  0  0  0  0  0  0  0  0  0  0
   -1.8025    1.5906   11.5106 C   0  0  0  0  0  0  0  0  0  0  0  0
   -5.1942   -1.6751   15.1173 H   0  0  0  0  0  0  0  0  0  0  0  0
   -3.8278   -1.5684   16.2179 H   0  0  0  0  0  0  0  0  0  0  0  0
   -3.8714   -2.8234   14.9573 H   0  0  0  0  0  0  0  0  0  0  0  0
   -1.6949   -2.4134   15.7192 H   0  0  0  0  0  0  0  0  0  0  0  0
    0.7227   -2.2378   15.5769 H   0  0  0  0  0  0  0  0  0  0  0  0
    2.5605   -1.3334   14.6728 H   0  0  0  0  0  0  0  0  0  0  0  0
    5.4852    3.3190   13.2580 H   0  0  0  0  0  0  0  0  0  0  0  0
    7.0724    1.9882   15.0155 H   0  0  0  0  0  0  0  0  0  0  0  0
    6.6651   -0.3397   16.4585 H   0  0  0  0  0  0  0  0  0  0  0  0
    2.9544    2.2813   10.2012 H   0  0  0  0  0  0  0  0  0  0  0  0
    2.1105    4.0873    8.7043 H   0  0  0  0  0  0  0  0  0  0  0  0
    1.3508    8.6488   10.4736 H   0  0  0  0  0  0  0  0  0  0  0  0
    2.1069    7.7292   12.6571 H   0  0  0  0  0  0  0  0  0  0  0  0
    3.0380    5.0183   13.5215 H   0  0  0  0  0  0  0  0  0  0  0  0
    0.3617    0.7720   12.5220 H   0  0  0  0  0  0  0  0  0  0  0  0
   -2.6057    2.0778   10.9582 H   0  0  0  0  0  0  0  0  0  0  0  0
   -1.1558    2.3730   11.9098 H   0  0  0  0  0  0  0  0  0  0  0  0
   -1.2396    0.9812   10.8019 H   0  0  0  0  0  0  0  0  0  0  0  0
  1  2  1  0
  1 30  1  0
  1 31  1  0
  1 32  1  0
  2  3  1  0
  3  4  2  0
  3 27  1  0
  4  5  1  0
  4 33  1  0
  5  6  2  0
  5 34  1  0
  6  7  1  0
  6 26  1  0
  7  8  1  0
  7 35  1  0
  8  9  2  0
  8 16  1  0
  9 10  1  0
 10 11  2  0
 10 17  1  0
 11 12  1  0
 11 36  1  0
 12 13  1  0
 12 16  1  0
 13 14  2  0
 13 37  1  0
 14 15  1  0
 14 38  1  0
 15 16  2  0
 17 18  2  0
 17 25  1  0
 18 19  1  0
 18 39  1  0
 19 20  2  0
 19 40  1  0
 20 21  1  0
 20 24  1  0
 21 22  2  0
 22 23  1  0
 22 41  1  0
 23 24  1  0
 23 42  1  0
 24 25  2  0
 25 43  1  0
 26 27  2  0
 26 44  1  0
 27 28  1  0
 28 29  1  0
 29 45  1  0
 29 46  1  0
 29 47  1  0
M  END
>  <s_m_entry_id>  (1) 
698

>  <IC50[nM]>  (1) 
6.3

>  <s_m_Source_Path>  (1) 
/projects/mai/users/kmzp800_harry/pmx_colab/docking_jobs/syk

>  <s_m_Source_File>  (1) 
tnks2_lig.sdf

>  <i_m_Source_File_Index>  (1) 
19

>  <s_m_job_name>  (1) 
glide-dock_SP_tnks2_no_const

>  <r_i_docking_score>  (1) 
-7.51210598961409

>  <r_i_glide_gscore>  (1) 
-7.51210598961409

>  <r_i_glide_emodel>  (1) 
-67.8227350860263

>  <index_string>  (1) 
18:0:0

$$$$
