38:0:0
     RDKit          3D

 54 59  0  0  1  0  0  0  0  0999 V2000
   -1.3846    8.7665    9.4330 O   0  0  0  0  0  0  0  0  0  0  0  0
    0.0574    8.7106    9.1334 S   0  0  0  0  0  0  0  0  0  0  0  0
    0.6932    9.7723    8.3390 O   0  0  0  0  0  0  0  0  0  0  0  0
    0.4188    7.0897    8.3480 C   0  0  0  0  0  0  0  0  0  0  0  0
    0.0284    5.9422    9.2884 C   0  0  0  0  0  0  0  0  0  0  0  0
    0.7148    6.0512   10.5717 N   0  0  0  0  0  0  0  0  0  0  0  0
    0.4977    7.2197   11.4218 C   0  0  0  0  0  0  0  0  0  0  0  0
    0.9603    8.4972   10.7139 C   0  0  0  0  0  0  0  0  0  0  0  0
    1.4394    4.9577   11.0729 C   0  0  0  0  0  0  0  0  0  0  0  0
    2.4011    4.3110   10.2650 C   0  0  0  0  0  0  0  0  0  0  0  0
    3.1788    3.2593   10.7865 C   0  0  0  0  0  0  0  0  0  0  0  0
    2.9754    2.8153   12.1073 C   0  0  0  0  0  0  0  0  0  0  0  0
    3.7966    1.8064   12.6179 N   0  0  0  0  0  0  0  0  0  0  0  0
    3.4684    0.8337   13.5689 C   0  0  0  0  0  0  0  0  0  0  0  0
    2.2557    0.3620   13.6081 N   0  0  0  0  0  0  0  0  0  0  0  0
    1.9163   -0.5870   14.5503 C   0  0  0  0  0  0  0  0  0  0  0  0
    2.8360   -1.0740   15.4556 C   0  0  0  0  0  0  0  0  0  0  0  0
    4.0947   -0.5603   15.4180 N   0  0  0  0  0  0  0  0  0  0  0  0
    5.2052   -0.7810   16.2162 C   0  0  0  0  0  0  0  0  0  0  0  0
    6.2006    0.0039   15.7065 C   0  0  0  0  0  0  0  0  0  0  0  0
    5.7581    0.7471   14.6212 N   0  0  0  0  0  0  0  0  0  0  0  0
    4.4797    0.4047   14.4628 C   0  0  0  0  0  0  0  0  0  0  0  0
    0.4940   -1.0192   14.5529 C   0  0  0  0  0  0  0  0  0  0  0  0
   -0.4658   -0.4073   13.7011 C   0  0  0  0  0  0  0  0  0  0  0  0
   -1.8211   -0.7958   13.7056 C   0  0  0  0  0  0  0  0  0  0  0  0
   -2.2770   -1.8126   14.5681 C   0  0  0  0  0  0  0  0  0  0  0  0
   -3.5147   -2.4695   14.8667 C   0  0  0  0  0  0  0  0  0  0  0  0
   -3.3717   -3.3694   15.8087 N   0  0  0  0  0  0  0  0  0  0  0  0
   -2.0563   -3.3376   16.1476 N   0  0  0  0  0  0  0  0  0  0  0  0
   -1.3186   -2.4195   15.4188 C   0  0  0  0  0  0  0  0  0  0  0  0
    0.0340   -2.0444   15.4172 C   0  0  0  0  0  0  0  0  0  0  0  0
    1.9934    3.4373   12.9073 C   0  0  0  0  0  0  0  0  0  0  0  0
    1.2370    4.5061   12.3960 C   0  0  0  0  0  0  0  0  0  0  0  0
   -0.1402    7.0350    7.4175 H   0  0  0  0  0  0  0  0  0  0  0  0
    1.4825    7.0574    8.1106 H   0  0  0  0  0  0  0  0  0  0  0  0
    0.2348    4.9819    8.8127 H   0  0  0  0  0  0  0  0  0  0  0  0
   -1.0472    5.9693    9.4697 H   0  0  0  0  0  0  0  0  0  0  0  0
   -0.5636    7.2874   11.6700 H   0  0  0  0  0  0  0  0  0  0  0  0
    1.0399    7.1277   12.3645 H   0  0  0  0  0  0  0  0  0  0  0  0
    0.8034    9.3785   11.3352 H   0  0  0  0  0  0  0  0  0  0  0  0
    2.0293    8.4475   10.4963 H   0  0  0  0  0  0  0  0  0  0  0  0
    2.5754    4.6460    9.2533 H   0  0  0  0  0  0  0  0  0  0  0  0
    3.9320    2.7939   10.1653 H   0  0  0  0  0  0  0  0  0  0  0  0
    4.7916    1.9519   12.5090 H   0  0  0  0  0  0  0  0  0  0  0  0
    2.6260   -1.8009   16.2309 H   0  0  0  0  0  0  0  0  0  0  0  0
    5.2267   -1.4967   17.0169 H   0  0  0  0  0  0  0  0  0  0  0  0
    7.2303    0.0042   16.0212 H   0  0  0  0  0  0  0  0  0  0  0  0
   -0.1700    0.3769   13.0202 H   0  0  0  0  0  0  0  0  0  0  0  0
   -2.5087   -0.3143   13.0294 H   0  0  0  0  0  0  0  0  0  0  0  0
   -4.4893   -2.3074   14.4297 H   0  0  0  0  0  0  0  0  0  0  0  0
   -1.7060   -3.9427   16.8838 H   0  0  0  0  0  0  0  0  0  0  0  0
    0.6958   -2.5561   16.0985 H   0  0  0  0  0  0  0  0  0  0  0  0
    1.8369    3.1198   13.9282 H   0  0  0  0  0  0  0  0  0  0  0  0
    0.5040    4.9777   13.0341 H   0  0  0  0  0  0  0  0  0  0  0  0
  1  2  2  0
  2  3  2  0
  2  4  1  0
  2  8  1  0
  4  5  1  0
  4 34  1  0
  4 35  1  0
  5  6  1  0
  5 36  1  0
  5 37  1  0
  6  7  1  0
  6  9  1  0
  7  8  1  0
  7 38  1  0
  7 39  1  0
  8 40  1  0
  8 41  1  0
  9 10  2  0
  9 33  1  0
 10 11  1  0
 10 42  1  0
 11 12  2  0
 11 43  1  0
 12 13  1  0
 12 32  1  0
 13 14  1  0
 13 44  1  0
 14 15  2  0
 14 22  1  0
 15 16  1  0
 16 17  2  0
 16 23  1  0
 17 18  1  0
 17 45  1  0
 18 19  1  0
 18 22  1  0
 19 20  2  0
 19 46  1  0
 20 21  1  0
 20 47  1  0
 21 22  2  0
 23 24  2  0
 23 31  1  0
 24 25  1  0
 24 48  1  0
 25 26  2  0
 25 49  1  0
 26 27  1  0
 26 30  1  0
 27 28  2  0
 27 50  1  0
 28 29  1  0
 29 30  1  0
 29 51  1  0
 30 31  2  0
 31 52  1  0
 32 33  2  0
 32 53  1  0
 33 54  1  0
M  END
>  <s_m_entry_id>  (1) 
718

>  <IC50[nM]>  (1) 
2.1

>  <s_m_Source_Path>  (1) 
/projects/mai/users/kmzp800_harry/pmx_colab/docking_jobs/syk

>  <s_m_Source_File>  (1) 
tnks2_lig.sdf

>  <i_m_Source_File_Index>  (1) 
39

>  <s_m_job_name>  (1) 
glide-dock_SP_tnks2_no_const

>  <r_i_docking_score>  (1) 
-6.40968443844956

>  <r_i_glide_gscore>  (1) 
-6.40968443844956

>  <r_i_glide_emodel>  (1) 
-66.672907568472

>  <index_string>  (1) 
38:0:0

$$$$
