4:0:0
     RDKit          3D

 43 45  0  0  1  0  0  0  0  0999 V2000
   41.6042   17.4863   11.9360 O   0  0  0  0  0  0  0  0  0  0  0  0
   40.7979   17.4159   12.8940 C   0  0  0  0  0  0  0  0  0  0  0  0
   39.6383   17.8863   12.8850 O   0  0  0  0  0  0  0  0  0  0  0  0
   41.2500   16.7291   14.1857 C   0  0  0  0  0  0  0  0  0  0  0  0
   42.4340   15.9676   13.9770 O   0  0  0  0  0  0  0  0  0  0  0  0
   42.6234   14.9901   14.8912 C   0  0  0  0  0  0  0  0  0  0  0  0
   42.0616   13.6919   14.7954 C   0  0  0  0  0  0  0  0  0  0  0  0
   40.9838   13.2745   13.2940 Br  0  0  0  0  0  0  0  0  0  0  0  0
   42.3845   12.8219   15.8114 C   0  0  0  0  0  0  0  0  0  0  0  0
   43.3838   13.6571   16.9782 S   0  0  0  0  0  0  0  0  0  0  0  0
   43.3719   15.1291   16.0279 C   0  0  0  0  0  0  0  0  0  0  0  0
   44.1158   16.2863   16.5311 C   0  0  0  0  0  0  0  0  0  0  0  0
   44.5838   17.0863   15.6940 O   0  0  0  0  0  0  0  0  0  0  0  0
   44.2367   16.4634   17.7618 O   0  0  0  0  0  0  0  0  0  0  0  0
   42.0381   11.4123   16.0388 C   0  0  0  0  0  0  0  0  0  0  0  0
   42.9202   10.5394   16.7165 C   0  0  0  0  0  0  0  0  0  0  0  0
   42.5838    9.1851   16.9143 C   0  0  0  0  0  0  0  0  0  0  0  0
   41.3722    8.6707   16.4144 C   0  0  0  0  0  0  0  0  0  0  0  0
   40.4810    9.5205   15.7249 C   0  0  0  0  0  0  0  0  0  0  0  0
   40.8171   10.8803   15.5720 C   0  0  0  0  0  0  0  0  0  0  0  0
   39.2637    9.0863   15.1762 N   0  0  0  0  0  0  0  0  0  0  0  0
   39.0186    7.6912   14.8242 C   0  0  0  0  0  0  0  0  0  0  0  0
   37.5621    7.5234   14.3624 C   0  0  0  0  0  0  0  0  0  0  0  0
   37.3006    6.0932   13.8651 C   0  0  0  0  0  0  0  0  0  0  0  0
   38.1980    5.7832   12.8052 O   0  0  0  0  0  0  0  0  0  0  0  0
   39.5588    5.7918   13.2238 C   0  0  0  0  0  0  0  0  0  0  0  0
   39.9520    7.1988   13.7024 C   0  0  0  0  0  0  0  0  0  0  0  0
   41.4365   17.4863   14.9479 H   0  0  0  0  0  0  0  0  0  0  0  0
   40.4316   16.1024   14.5460 H   0  0  0  0  0  0  0  0  0  0  0  0
   43.8690   10.8989   17.0872 H   0  0  0  0  0  0  0  0  0  0  0  0
   43.2663    8.5327   17.4385 H   0  0  0  0  0  0  0  0  0  0  0  0
   41.1437    7.6262   16.5649 H   0  0  0  0  0  0  0  0  0  0  0  0
   40.1174   11.5270   15.0737 H   0  0  0  0  0  0  0  0  0  0  0  0
   38.7396    9.7794   14.6511 H   0  0  0  0  0  0  0  0  0  0  0  0
   39.1650    7.0721   15.7100 H   0  0  0  0  0  0  0  0  0  0  0  0
   36.8780    7.7641   15.1768 H   0  0  0  0  0  0  0  0  0  0  0  0
   37.3451    8.2237   13.5542 H   0  0  0  0  0  0  0  0  0  0  0  0
   37.4091    5.3708   14.6758 H   0  0  0  0  0  0  0  0  0  0  0  0
   36.2785    6.0066   13.4965 H   0  0  0  0  0  0  0  0  0  0  0  0
   39.7172    5.0545   14.0123 H   0  0  0  0  0  0  0  0  0  0  0  0
   40.1839    5.4940   12.3823 H   0  0  0  0  0  0  0  0  0  0  0  0
   39.9132    7.8863   12.8583 H   0  0  0  0  0  0  0  0  0  0  0  0
   40.9838    7.1780   14.0477 H   0  0  0  0  0  0  0  0  0  0  0  0
  1  2  2  0
  2  3  1  0
  2  4  1  0
  4  5  1  0
  4 28  1  0
  4 29  1  0
  5  6  1  0
  6 11  2  0
  6  7  1  0
  7  8  1  0
  7  9  2  0
  9 10  1  0
  9 15  1  0
 10 11  1  0
 11 12  1  0
 12 13  2  0
 12 14  1  0
 15 20  1  0
 15 16  2  0
 16 17  1  0
 16 30  1  0
 17 18  2  0
 17 31  1  0
 18 19  1  0
 18 32  1  0
 19 20  2  0
 19 21  1  0
 20 33  1  0
 21 22  1  0
 21 34  1  0
 22 27  1  0
 22 23  1  0
 22 35  1  0
 23 24  1  0
 23 36  1  0
 23 37  1  0
 24 25  1  0
 24 38  1  0
 24 39  1  0
 25 26  1  0
 26 27  1  0
 26 40  1  0
 26 41  1  0
 27 42  1  0
 27 43  1  0
M  CHG  2   3  -1  14  -1
M  END
>  <s_m_entry_id>  (1) 
457

>  <i_f3d_flags>  (1) 
0

>  <r_epik_Ionization_Penalty>  (1) 
  0.0006

>  <r_epik_State_Penalty>  (1) 
  0.0003

>  <i_epik_Tot_Q>  (1) 
-2

>  <s_m_job_name>  (1) 
glide-dock_SP_ptp1b_no_cons

>  <r_i_docking_score>  (1) 
-8.36649571713962

>  <r_i_glide_gscore>  (1) 
-8.36679571713962

>  <r_i_glide_emodel>  (1) 
-109.703890438312

>  <index_string>  (1) 
4:0:0

$$$$
