9:0:0
     RDKit          3D

 46 49  0  0  1  0  0  0  0  0999 V2000
   34.1941   35.0976   21.2444 C   0  0  0  0  0  0  0  0  0  0  0  0
   34.1536   38.9905   24.0142 C   0  0  0  0  0  0  0  0  0  0  0  0
   34.6191   37.9162   21.6017 C   0  0  0  0  0  0  0  0  0  0  0  0
   34.7864   37.3064   20.2928 C   0  0  0  0  0  0  0  0  0  0  0  0
   34.2168   37.1049   22.6809 C   0  0  0  0  0  0  0  0  0  0  0  0
   34.7848   39.2913   21.8484 C   0  0  0  0  0  0  0  0  0  0  0  0
   34.5580   35.9911   20.1354 C   0  0  0  0  0  0  0  0  0  0  0  0
   33.6966   34.8803   23.6400 C   0  0  0  0  0  0  0  0  0  0  0  0
   34.5516   39.8337   23.0633 N   0  0  0  0  0  0  0  0  0  0  0  0
   34.0522   33.8824   21.0969 O   0  0  0  0  0  0  0  0  0  0  0  0
   34.0500   35.6948   22.4650 N   0  0  0  0  0  0  0  0  0  0  0  0
   33.9907   37.6744   23.8831 N   0  0  0  0  0  0  0  0  0  0  0  0
   33.8933   39.5489   25.2497 N   0  0  0  0  0  0  0  0  0  0  0  0
   35.0272   37.9430   19.4537 H   0  0  0  0  0  0  0  0  0  0  0  0
   35.0952   39.9507   21.0553 H   0  0  0  0  0  0  0  0  0  0  0  0
   34.3938   35.0718   24.4565 H   0  0  0  0  0  0  0  0  0  0  0  0
   32.6961   35.1465   23.9846 H   0  0  0  0  0  0  0  0  0  0  0  0
   33.7062   33.8019   23.4751 H   0  0  0  0  0  0  0  0  0  0  0  0
   33.9810   40.5567   25.3340 H   0  0  0  0  0  0  0  0  0  0  0  0
   33.3038   38.3700   28.8166 C   0  0  0  0  0  0  0  0  0  0  0  0
   33.9821   39.1559   27.6869 C   0  0  0  0  0  0  0  0  0  0  0  0
   33.2864   38.8299   26.3639 C   0  0  0  0  0  0  0  0  0  0  0  0
   31.7867   39.1314   26.4900 C   0  0  0  0  0  0  0  0  0  0  0  0
   31.2030   38.3746   27.6946 C   0  0  0  0  0  0  0  0  0  0  0  0
   31.9222   38.7134   28.8769 O   0  0  0  0  0  0  0  0  0  0  0  0
   33.4185   37.2948   28.6708 H   0  0  0  0  0  0  0  0  0  0  0  0
   33.7688   38.6127   29.7728 H   0  0  0  0  0  0  0  0  0  0  0  0
   35.0400   38.8957   27.6343 H   0  0  0  0  0  0  0  0  0  0  0  0
   33.9255   40.2260   27.8946 H   0  0  0  0  0  0  0  0  0  0  0  0
   33.3976   37.7557   26.2148 H   0  0  0  0  0  0  0  0  0  0  0  0
   31.6299   40.2035   26.6182 H   0  0  0  0  0  0  0  0  0  0  0  0
   31.2600   38.8422   25.5804 H   0  0  0  0  0  0  0  0  0  0  0  0
   31.2411   37.2963   27.5287 H   0  0  0  0  0  0  0  0  0  0  0  0
   30.1541   38.6340   27.8345 H   0  0  0  0  0  0  0  0  0  0  0  0
   34.5528   35.1495   18.5750 S   0  0  0  0  0  0  0  0  0  0  0  0
   38.4502   36.3486   16.5204 C   0  0  0  0  0  0  0  0  0  0  0  0
   38.4115   36.2359   17.9199 C   0  0  0  0  0  0  0  0  0  0  0  0
   37.1960   35.9493   18.5664 C   0  0  0  0  0  0  0  0  0  0  0  0
   36.0369   35.6974   17.7980 C   0  0  0  0  0  0  0  0  0  0  0  0
   36.0985   35.7551   16.3907 C   0  0  0  0  0  0  0  0  0  0  0  0
   37.2985   36.1172   15.7595 C   0  0  0  0  0  0  0  0  0  0  0  0
   39.3523   36.6231   16.0122 H   0  0  0  0  0  0  0  0  0  0  0  0
   39.3159   36.3498   18.4988 H   0  0  0  0  0  0  0  0  0  0  0  0
   37.1837   35.8582   19.6428 H   0  0  0  0  0  0  0  0  0  0  0  0
   35.0153   35.4446   15.6410 F   0  0  0  0  0  0  0  0  0  0  0  0
   37.3524   36.2073   14.6891 H   0  0  0  0  0  0  0  0  0  0  0  0
  1  7  1  0
  1 10  2  0
  1 11  1  0
  2  9  1  0
  2 12  2  0
  2 13  1  0
  3  4  1  0
  3  5  2  0
  3  6  1  0
  4  7  2  0
  4 14  1  0
  5 11  1  0
  5 12  1  0
  6  9  2  0
  6 15  1  0
  7 35  1  0
  8 11  1  0
  8 16  1  0
  8 17  1  0
  8 18  1  0
 13 19  1  0
 13 22  1  0
 20 21  1  0
 20 25  1  0
 20 26  1  0
 20 27  1  0
 21 22  1  0
 21 28  1  0
 21 29  1  0
 22 23  1  0
 22 30  1  0
 23 24  1  0
 23 31  1  0
 23 32  1  0
 24 25  1  0
 24 33  1  0
 24 34  1  0
 35 39  1  0
 36 37  2  0
 36 41  1  0
 36 42  1  0
 37 38  1  0
 37 43  1  0
 38 39  2  0
 38 44  1  0
 39 40  1  0
 40 41  2  0
 40 45  1  0
 41 46  1  0
M  END
>  <s_m_entry_id>  (1) 
827

>  <s_m_Source_Path>  (1) 
/projects/mai/users/kmzp800_harry/pmx_colab/docking_jobs/p38/glide-dock_SP_p38_mcs_docking_2

>  <s_m_Source_File>  (1) 
glide-dock_SP_p38_mcs_docking_2_pv.maegz

>  <i_m_Source_File_Index>  (1) 
11

>  <s_pdb_PDB_TITLE>  (1) 
MX MODEL

>  <r_i_docking_score>  (1) 
-7.38556907444391

>  <r_i_glide_gscore>  (1) 
-7.38556907444391

>  <r_i_glide_emodel>  (1) 
-55.9598075746857

>  <index_string>  (1) 
9:0:0

$$$$
