12:0:0
     RDKit          3D

 53 55  0  0  1  0  0  0  0  0999 V2000
   39.3732   17.4857   12.5019 O   0  0  0  0  0  0  0  0  0  0  0  0
   40.5866   17.2019   12.6323 C   0  0  0  0  0  0  0  0  0  0  0  0
   41.4743   17.4863   11.7847 O   0  0  0  0  0  0  0  0  0  0  0  0
   40.9961   16.4601   13.9108 C   0  0  0  0  0  0  0  0  0  0  0  0
   42.2278   15.7633   13.7267 O   0  0  0  0  0  0  0  0  0  0  0  0
   42.5453   14.9501   14.7586 C   0  0  0  0  0  0  0  0  0  0  0  0
   42.1507   13.5914   14.8672 C   0  0  0  0  0  0  0  0  0  0  0  0
   40.9619   12.8780   13.6015 Br  0  0  0  0  0  0  0  0  0  0  0  0
   42.6031   12.9252   15.9775 C   0  0  0  0  0  0  0  0  0  0  0  0
   43.6199   13.9877   16.9053 S   0  0  0  0  0  0  0  0  0  0  0  0
   43.3735   15.2957   15.7839 C   0  0  0  0  0  0  0  0  0  0  0  0
   44.0300   16.5491   16.0992 C   0  0  0  0  0  0  0  0  0  0  0  0
   44.0163   17.4872   15.2901 O   0  0  0  0  0  0  0  0  0  0  0  0
   44.5840   16.6855   17.2060 O   0  0  0  0  0  0  0  0  0  0  0  0
   42.3378   11.5715   16.4662 C   0  0  0  0  0  0  0  0  0  0  0  0
   43.3824   10.7972   17.0262 C   0  0  0  0  0  0  0  0  0  0  0  0
   43.1442    9.4938   17.4889 C   0  0  0  0  0  0  0  0  0  0  0  0
   41.8579    8.9307   17.3796 C   0  0  0  0  0  0  0  0  0  0  0  0
   40.8036    9.6768   16.7977 C   0  0  0  0  0  0  0  0  0  0  0  0
   41.0474   10.9972   16.3738 C   0  0  0  0  0  0  0  0  0  0  0  0
   39.5074    9.1544   16.6671 N   0  0  0  0  0  0  0  0  0  0  0  0
   39.3402    7.7454   16.3402 C   0  0  0  0  0  0  0  0  0  0  0  0
   38.8957    7.5456   14.8786 C   0  0  0  0  0  0  0  0  0  0  0  0
   39.0219    6.0762   14.4627 C   0  0  0  0  0  0  0  0  0  0  0  0
   38.5330    5.8397   13.0259 C   0  0  0  0  0  0  0  0  0  0  0  0
   37.1466    6.3119   12.8940 N   0  0  0  0  0  0  0  0  0  0  0  0
   36.9646    7.7437   13.2051 C   0  0  0  0  0  0  0  0  0  0  0  0
   37.4435    8.0340   14.6394 C   0  0  0  0  0  0  0  0  0  0  0  0
   36.0838    5.5441   12.3890 C   0  0  0  0  0  0  0  0  0  0  0  0
   34.9673    5.9753   12.0883 O   0  0  0  0  0  0  0  0  0  0  0  0
   36.4392    4.2548   12.2595 O   0  0  0  0  0  0  0  0  0  0  0  0
   35.5043    3.2915   11.7957 C   0  0  0  0  0  0  0  0  0  0  0  0
   41.1007   17.1871   14.7270 H   0  0  0  0  0  0  0  0  0  0  0  0
   40.1950   15.7673   14.1942 H   0  0  0  0  0  0  0  0  0  0  0  0
   44.3731   11.2223   17.0955 H   0  0  0  0  0  0  0  0  0  0  0  0
   43.9460    8.9207   17.9301 H   0  0  0  0  0  0  0  0  0  0  0  0
   41.7029    7.9399   17.7724 H   0  0  0  0  0  0  0  0  0  0  0  0
   40.2350   11.5874   15.9429 H   0  0  0  0  0  0  0  0  0  0  0  0
   38.8183    9.7847   16.2693 H   0  0  0  0  0  0  0  0  0  0  0  0
   40.2600    7.1824   16.4748 H   0  0  0  0  0  0  0  0  0  0  0  0
   38.6078    7.3094   17.0172 H   0  0  0  0  0  0  0  0  0  0  0  0
   39.5596    8.1253   14.2227 H   0  0  0  0  0  0  0  0  0  0  0  0
   40.0674    5.7583   14.5392 H   0  0  0  0  0  0  0  0  0  0  0  0
   38.4577    5.4395   15.1470 H   0  0  0  0  0  0  0  0  0  0  0  0
   39.1644    6.3987   12.3327 H   0  0  0  0  0  0  0  0  0  0  0  0
   38.6949    4.8033   12.7714 H   0  0  0  0  0  0  0  0  0  0  0  0
   37.5205    8.3548   12.4942 H   0  0  0  0  0  0  0  0  0  0  0  0
   35.9188    8.0604   13.1174 H   0  0  0  0  0  0  0  0  0  0  0  0
   36.7761    7.5477   15.3482 H   0  0  0  0  0  0  0  0  0  0  0  0
   37.3756    9.1084   14.8218 H   0  0  0  0  0  0  0  0  0  0  0  0
   35.9830    2.3136   11.7954 H   0  0  0  0  0  0  0  0  0  0  0  0
   34.6346    3.2483   12.4450 H   0  0  0  0  0  0  0  0  0  0  0  0
   35.1854    3.5203   10.7852 H   0  0  0  0  0  0  0  0  0  0  0  0
  1  2  2  0
  2  3  1  0
  2  4  1  0
  4  5  1  0
  4 33  1  0
  4 34  1  0
  5  6  1  0
  6 11  2  0
  6  7  1  0
  7  8  1  0
  7  9  2  0
  9 10  1  0
  9 15  1  0
 10 11  1  0
 11 12  1  0
 12 13  2  0
 12 14  1  0
 15 20  1  0
 15 16  2  0
 16 17  1  0
 16 35  1  0
 17 18  2  0
 17 36  1  0
 18 19  1  0
 18 37  1  0
 19 20  2  0
 19 21  1  0
 20 38  1  0
 21 22  1  0
 21 39  1  0
 22 23  1  0
 22 40  1  0
 22 41  1  0
 23 28  1  0
 23 24  1  0
 23 42  1  0
 24 25  1  0
 24 43  1  0
 24 44  1  0
 25 26  1  0
 25 45  1  0
 25 46  1  0
 26 27  1  0
 26 29  1  0
 27 28  1  0
 27 47  1  0
 27 48  1  0
 28 49  1  0
 28 50  1  0
 29 30  2  0
 29 31  1  0
 31 32  1  0
 32 51  1  0
 32 52  1  0
 32 53  1  0
M  CHG  2   3  -1  14  -1
M  END
>  <s_m_entry_id>  (1) 
487

>  <i_f3d_flags>  (1) 
0

>  <r_epik_Ionization_Penalty>  (1) 
  0.0017

>  <r_epik_State_Penalty>  (1) 
  0.0010

>  <i_epik_Tot_Q>  (1) 
-2

>  <s_m_job_name>  (1) 
glide-dock_SP_ptp1b_core_cons

>  <r_i_docking_score>  (1) 
-7.34787779751744

>  <r_i_glide_gscore>  (1) 
-7.34887779751744

>  <r_i_glide_emodel>  (1) 
-102.400992011212

>  <index_string>  (1) 
12:0:0

$$$$
