22:0:0
     RDKit          3D

 37 39  0  0  1  0  0  0  0  0999 V2000
  -14.4449  -15.3173  -27.8345 C   0  0  0  0  0  0  0  0  0  0  0  0
  -15.0031  -15.9897  -26.7384 C   0  0  0  0  0  0  0  0  0  0  0  0
  -14.4484  -13.9252  -27.8524 C   0  0  0  0  0  0  0  0  0  0  0  0
  -15.6476  -15.2942  -25.6924 C   0  0  0  0  0  0  0  0  0  0  0  0
  -14.8484  -17.3582  -26.6985 N   0  0  0  0  0  0  0  0  0  0  0  0
  -15.0132  -13.2410  -26.7692 C   0  0  0  0  0  0  0  0  0  0  0  0
  -15.6515  -13.8931  -25.7033 C   0  0  0  0  0  0  0  0  0  0  0  0
  -16.2317  -16.0951  -24.5702 C   0  0  0  0  0  0  0  0  0  0  0  0
  -16.0481  -17.4191  -24.6725 N   0  0  0  0  0  0  0  0  0  0  0  0
  -16.8293  -15.5794  -23.6305 O   0  0  0  0  0  0  0  0  0  0  0  0
  -15.3475  -18.0419  -25.7168 C   0  0  0  0  0  0  0  0  0  0  0  0
  -15.2039  -19.5003  -25.7910 C   0  0  0  0  0  0  0  0  0  0  0  0
  -15.4156  -20.3094  -24.6623 C   0  0  0  0  0  0  0  0  0  0  0  0
  -15.3210  -21.6999  -24.7956 C   0  0  0  0  0  0  0  0  0  0  0  0
  -15.0159  -22.2816  -26.0487 C   0  0  0  0  0  0  0  0  0  0  0  0
  -14.7391  -21.4582  -27.1387 C   0  0  0  0  0  0  0  0  0  0  0  0
  -14.8500  -20.0796  -27.0259 C   0  0  0  0  0  0  0  0  0  0  0  0
  -14.9893  -23.7745  -26.2518 C   0  0  0  0  0  0  0  0  0  0  0  0
  -15.6482  -24.3717  -25.1919 O   0  0  0  0  0  0  0  0  0  0  0  0
  -14.8481  -11.5728  -26.7457 Cl  0  0  0  0  0  0  0  0  0  0  0  0
  -13.5392  -24.2840  -26.3384 C   0  0  0  0  0  0  0  0  0  0  0  0
  -15.8194  -24.2461  -27.4550 C   0  0  0  0  0  0  0  0  0  0  0  0
  -13.9775  -15.8677  -28.6377 H   0  0  0  0  0  0  0  0  0  0  0  0
  -13.9804  -13.3859  -28.6635 H   0  0  0  0  0  0  0  0  0  0  0  0
  -16.0843  -13.3286  -24.8889 H   0  0  0  0  0  0  0  0  0  0  0  0
  -16.4953  -17.9993  -23.9733 H   0  0  0  0  0  0  0  0  0  0  0  0
  -15.6674  -19.8837  -23.7021 H   0  0  0  0  0  0  0  0  0  0  0  0
  -15.5148  -22.3056  -23.9279 H   0  0  0  0  0  0  0  0  0  0  0  0
  -14.4539  -21.8788  -28.0741 H   0  0  0  0  0  0  0  0  0  0  0  0
  -14.6566  -19.4897  -27.9115 H   0  0  0  0  0  0  0  0  0  0  0  0
  -15.1659  -24.1877  -24.4007 H   0  0  0  0  0  0  0  0  0  0  0  0
  -13.0105  -23.8325  -27.1786 H   0  0  0  0  0  0  0  0  0  0  0  0
  -13.5030  -25.3645  -26.4756 H   0  0  0  0  0  0  0  0  0  0  0  0
  -12.9783  -24.0448  -25.4337 H   0  0  0  0  0  0  0  0  0  0  0  0
  -15.3666  -23.9369  -28.3876 H   0  0  0  0  0  0  0  0  0  0  0  0
  -15.8854  -25.3350  -27.4882 H   0  0  0  0  0  0  0  0  0  0  0  0
  -16.8361  -23.8525  -27.4195 H   0  0  0  0  0  0  0  0  0  0  0  0
  1  2  2  0
  1  3  1  0
  1 23  1  0
  2  4  1  0
  2  5  1  0
  3  6  2  0
  3 24  1  0
  4  7  2  0
  4  8  1  0
  5 11  2  0
  6  7  1  0
  6 20  1  0
  7 25  1  0
  8  9  1  0
  8 10  2  0
  9 11  1  0
  9 26  1  0
 11 12  1  0
 12 13  2  0
 12 17  1  0
 13 14  1  0
 13 27  1  0
 14 15  2  0
 14 28  1  0
 15 16  1  0
 15 18  1  0
 16 17  2  0
 16 29  1  0
 17 30  1  0
 18 19  1  0
 18 21  1  0
 18 22  1  0
 19 31  1  0
 21 32  1  0
 21 33  1  0
 21 34  1  0
 22 35  1  0
 22 36  1  0
 22 37  1  0
M  END
>  <s_m_entry_id>  (1) 
437

>  <Name>  (1) 
5e

>  <IC50[nM]>  (1) 
39

>  <s_m_Source_Path>  (1) 
/projects/mai/users/kmzp800_harry/pmx_colab/docking_jobs/tnks2

>  <s_m_Source_File>  (1) 
tnks2_lig.sdf

>  <i_m_Source_File_Index>  (1) 
23

>  <s_m_job_name>  (1) 
glide-dock_SP_tnks2_no_cons

>  <r_i_docking_score>  (1) 
-10.1494407369687

>  <r_i_glide_gscore>  (1) 
-10.1494407369687

>  <r_i_glide_emodel>  (1) 
-52.770857202545

>  <index_string>  (1) 
22:0:0

$$$$
