11:0:0
     RDKit          3D

 52 55  0  0  1  0  0  0  0  0999 V2000
   -4.5422    5.9881   13.8277 C   0  0  0  0  0  0  0  0  0  0  0  0
   -4.0053    6.0091   12.5114 O   0  0  0  0  0  0  0  0  0  0  0  0
   -2.6633    5.7269   12.3377 C   0  0  0  0  0  0  0  0  0  0  0  0
   -1.7673    5.5117   13.4132 C   0  0  0  0  0  0  0  0  0  0  0  0
   -0.4210    5.1875   13.1712 C   0  0  0  0  0  0  0  0  0  0  0  0
    0.0615    5.0969   11.8526 C   0  0  0  0  0  0  0  0  0  0  0  0
    1.4055    4.7975   11.5953 N   0  0  0  0  0  0  0  0  0  0  0  0
    2.2052    3.8684   12.2744 C   0  0  0  0  0  0  0  0  0  0  0  0
    1.6380    2.7912   12.7395 N   0  0  0  0  0  0  0  0  0  0  0  0
    2.3853    1.8384   13.3986 C   0  0  0  0  0  0  0  0  0  0  0  0
    3.7395    2.0089   13.6074 C   0  0  0  0  0  0  0  0  0  0  0  0
    4.3278    3.1423   13.1339 N   0  0  0  0  0  0  0  0  0  0  0  0
    5.6297    3.6041   13.2037 C   0  0  0  0  0  0  0  0  0  0  0  0
    5.6661    4.7794   12.5031 C   0  0  0  0  0  0  0  0  0  0  0  0
    4.4087    5.0917   12.0005 N   0  0  0  0  0  0  0  0  0  0  0  0
    3.6001    4.1131   12.4123 C   0  0  0  0  0  0  0  0  0  0  0  0
    1.6279    0.6356   13.8660 C   0  0  0  0  0  0  0  0  0  0  0  0
    2.2393   -0.3962   14.6169 C   0  0  0  0  0  0  0  0  0  0  0  0
    1.5010   -1.4916   15.1075 C   0  0  0  0  0  0  0  0  0  0  0  0
    0.1180   -1.6113   14.8487 C   0  0  0  0  0  0  0  0  0  0  0  0
   -0.6481   -2.8051   15.3681 C   0  0  0  0  0  0  0  0  0  0  0  0
   -1.5092   -3.3657   14.6950 O   0  0  0  0  0  0  0  0  0  0  0  0
   -0.3700   -3.1960   16.6170 N   0  0  0  0  0  0  0  0  0  0  0  0
   -0.5139   -0.6189   14.0571 C   0  0  0  0  0  0  0  0  0  0  0  0
   -1.8639   -0.7449   13.7949 O   0  0  0  0  0  0  0  0  0  0  0  0
   -2.4380    0.0721   12.7867 C   0  0  0  0  0  0  0  0  0  0  0  0
    0.2454    0.4848   13.5894 C   0  0  0  0  0  0  0  0  0  0  0  0
   -0.8128    5.3504   10.7775 C   0  0  0  0  0  0  0  0  0  0  0  0
   -2.1813    5.6528   11.0101 C   0  0  0  0  0  0  0  0  0  0  0  0
   -3.0943    5.8803   10.0012 O   0  0  0  0  0  0  0  0  0  0  0  0
   -2.6601    5.7479    8.6536 C   0  0  0  0  0  0  0  0  0  0  0  0
   -5.6219    6.1247   13.7717 H   0  0  0  0  0  0  0  0  0  0  0  0
   -4.3630    5.0339   14.3260 H   0  0  0  0  0  0  0  0  0  0  0  0
   -4.1418    6.7974   14.4375 H   0  0  0  0  0  0  0  0  0  0  0  0
   -2.0913    5.5850   14.4398 H   0  0  0  0  0  0  0  0  0  0  0  0
    0.2409    5.0264   14.0109 H   0  0  0  0  0  0  0  0  0  0  0  0
    1.9334    5.5286   11.1372 H   0  0  0  0  0  0  0  0  0  0  0  0
    4.3821    1.3114   14.1327 H   0  0  0  0  0  0  0  0  0  0  0  0
    6.3909    3.0450   13.7255 H   0  0  0  0  0  0  0  0  0  0  0  0
    6.5090    5.4289   12.3139 H   0  0  0  0  0  0  0  0  0  0  0  0
    3.2905   -0.3597   14.8526 H   0  0  0  0  0  0  0  0  0  0  0  0
    2.0106   -2.2499   15.6805 H   0  0  0  0  0  0  0  0  0  0  0  0
   -0.8941   -3.9601   17.0361 H   0  0  0  0  0  0  0  0  0  0  0  0
    0.3518   -2.7408   17.1665 H   0  0  0  0  0  0  0  0  0  0  0  0
   -3.4534   -0.2750   12.6030 H   0  0  0  0  0  0  0  0  0  0  0  0
   -2.4939    1.1161   13.0974 H   0  0  0  0  0  0  0  0  0  0  0  0
   -1.8940    0.0041   11.8414 H   0  0  0  0  0  0  0  0  0  0  0  0
   -0.2471    1.2532   13.0158 H   0  0  0  0  0  0  0  0  0  0  0  0
   -0.4140    5.2900    9.7753 H   0  0  0  0  0  0  0  0  0  0  0  0
   -3.5035    5.9139    7.9854 H   0  0  0  0  0  0  0  0  0  0  0  0
   -1.8945    6.4846    8.4063 H   0  0  0  0  0  0  0  0  0  0  0  0
   -2.2762    4.7468    8.4573 H   0  0  0  0  0  0  0  0  0  0  0  0
  1  2  1  0
  1 32  1  0
  1 33  1  0
  1 34  1  0
  2  3  1  0
  3  4  2  0
  3 29  1  0
  4  5  1  0
  4 35  1  0
  5  6  2  0
  5 36  1  0
  6  7  1  0
  6 28  1  0
  7  8  1  0
  7 37  1  0
  8  9  2  0
  8 16  1  0
  9 10  1  0
 10 11  2  0
 10 17  1  0
 11 12  1  0
 11 38  1  0
 12 13  1  0
 12 16  1  0
 13 14  2  0
 13 39  1  0
 14 15  1  0
 14 40  1  0
 15 16  2  0
 17 18  2  0
 17 27  1  0
 18 19  1  0
 18 41  1  0
 19 20  2  0
 19 42  1  0
 20 21  1  0
 20 24  1  0
 21 22  2  0
 21 23  1  0
 23 43  1  0
 23 44  1  0
 24 25  1  0
 24 27  2  0
 25 26  1  0
 26 45  1  0
 26 46  1  0
 26 47  1  0
 27 48  1  0
 28 29  2  0
 28 49  1  0
 29 30  1  0
 30 31  1  0
 31 50  1  0
 31 51  1  0
 31 52  1  0
M  END
>  <s_m_entry_id>  (1) 
691

>  <IC50[nM]>  (1) 
23.8

>  <s_m_Source_Path>  (1) 
/projects/mai/users/kmzp800_harry/pmx_colab/docking_jobs/syk

>  <s_m_Source_File>  (1) 
tnks2_lig.sdf

>  <i_m_Source_File_Index>  (1) 
12

>  <s_m_job_name>  (1) 
glide-dock_SP_tnks2_no_const

>  <r_i_docking_score>  (1) 
-7.41211097895497

>  <r_i_glide_gscore>  (1) 
-7.41211097895497

>  <r_i_glide_emodel>  (1) 
-72.3844991739451

>  <index_string>  (1) 
11:0:0

$$$$
