33:0:0
     RDKit          3D

 52 57  0  0  1  0  0  0  0  0999 V2000
   -6.2438   -3.8825   16.0698 C   0  0  0  0  0  0  0  0  0  0  0  0
   -5.7560   -2.7965   15.1153 C   0  0  0  0  0  0  0  0  0  0  0  0
   -6.9145   -2.2954   14.4743 O   0  0  0  0  0  0  0  0  0  0  0  0
   -4.8356   -1.7244   15.7034 C   0  0  0  0  0  0  0  0  0  0  0  0
   -4.0299   -1.8709   14.4981 N   0  0  0  0  0  0  0  0  0  0  0  0
   -4.6040   -3.1714   14.1768 C   0  0  0  0  0  0  0  0  0  0  0  0
   -2.6365   -1.8119   14.6754 C   0  0  0  0  0  0  0  0  0  0  0  0
   -1.9141   -0.8607   13.9274 C   0  0  0  0  0  0  0  0  0  0  0  0
   -0.5320   -0.6905   14.0809 C   0  0  0  0  0  0  0  0  0  0  0  0
    0.1968   -1.4576   15.0197 C   0  0  0  0  0  0  0  0  0  0  0  0
    1.5751   -1.3094   15.2731 N   0  0  0  0  0  0  0  0  0  0  0  0
    2.5216   -0.4233   14.7450 C   0  0  0  0  0  0  0  0  0  0  0  0
    2.1933    0.4017   13.7780 N   0  0  0  0  0  0  0  0  0  0  0  0
    3.1191    1.2714   13.2482 C   0  0  0  0  0  0  0  0  0  0  0  0
    4.4205    1.2951   13.6885 C   0  0  0  0  0  0  0  0  0  0  0  0
    4.7589    0.4819   14.7186 N   0  0  0  0  0  0  0  0  0  0  0  0
    5.9052    0.3783   15.4709 C   0  0  0  0  0  0  0  0  0  0  0  0
    5.6085   -0.4996   16.4864 C   0  0  0  0  0  0  0  0  0  0  0  0
    4.3691   -1.0672   16.3207 N   0  0  0  0  0  0  0  0  0  0  0  0
    3.8322   -0.4190   15.2899 C   0  0  0  0  0  0  0  0  0  0  0  0
    2.6374    2.2217   12.2149 C   0  0  0  0  0  0  0  0  0  0  0  0
    3.5030    2.6986   11.1953 C   0  0  0  0  0  0  0  0  0  0  0  0
    3.0521    3.5614   10.1761 C   0  0  0  0  0  0  0  0  0  0  0  0
    1.7137    4.0098   10.1602 C   0  0  0  0  0  0  0  0  0  0  0  0
    0.9031    4.8751    9.3482 C   0  0  0  0  0  0  0  0  0  0  0  0
   -0.3303    4.9484    9.8005 N   0  0  0  0  0  0  0  0  0  0  0  0
   -0.3561    4.1650   10.9011 N   0  0  0  0  0  0  0  0  0  0  0  0
    0.8569    3.5599   11.1955 C   0  0  0  0  0  0  0  0  0  0  0  0
    1.3065    2.6941   12.2152 C   0  0  0  0  0  0  0  0  0  0  0  0
   -0.5048   -2.4312   15.7611 C   0  0  0  0  0  0  0  0  0  0  0  0
   -1.8905   -2.6143   15.5764 C   0  0  0  0  0  0  0  0  0  0  0  0
   -5.4060   -4.3276   16.6136 H   0  0  0  0  0  0  0  0  0  0  0  0
   -6.7488   -4.6923   15.5435 H   0  0  0  0  0  0  0  0  0  0  0  0
   -6.9325   -3.4850   16.8152 H   0  0  0  0  0  0  0  0  0  0  0  0
   -7.3768   -3.0364   14.1093 H   0  0  0  0  0  0  0  0  0  0  0  0
   -5.2914   -0.7429   15.8054 H   0  0  0  0  0  0  0  0  0  0  0  0
   -4.3447   -2.0420   16.6228 H   0  0  0  0  0  0  0  0  0  0  0  0
   -4.0179   -4.0154   14.5333 H   0  0  0  0  0  0  0  0  0  0  0  0
   -4.8759   -3.2692   13.1285 H   0  0  0  0  0  0  0  0  0  0  0  0
   -2.4332   -0.2271   13.2276 H   0  0  0  0  0  0  0  0  0  0  0  0
   -0.0851    0.0572   13.4515 H   0  0  0  0  0  0  0  0  0  0  0  0
    1.9469   -1.9145   15.9902 H   0  0  0  0  0  0  0  0  0  0  0  0
    5.1852    1.9841   13.3300 H   0  0  0  0  0  0  0  0  0  0  0  0
    6.7669    0.9985   15.2548 H   0  0  0  0  0  0  0  0  0  0  0  0
    6.1883   -0.7350   17.3585 H   0  0  0  0  0  0  0  0  0  0  0  0
    4.5264    2.3715   11.1513 H   0  0  0  0  0  0  0  0  0  0  0  0
    3.7238    3.8923    9.3969 H   0  0  0  0  0  0  0  0  0  0  0  0
    1.1911    5.4459    8.4774 H   0  0  0  0  0  0  0  0  0  0  0  0
   -1.2054    4.0678   11.4321 H   0  0  0  0  0  0  0  0  0  0  0  0
    0.6157    2.3802   12.9899 H   0  0  0  0  0  0  0  0  0  0  0  0
    0.0211   -3.0433   16.4829 H   0  0  0  0  0  0  0  0  0  0  0  0
   -2.3903   -3.3644   16.1767 H   0  0  0  0  0  0  0  0  0  0  0  0
  1  2  1  0
  1 32  1  0
  1 33  1  0
  1 34  1  0
  2  3  1  0
  2  4  1  0
  2  6  1  0
  3 35  1  0
  4  5  1  0
  4 36  1  0
  4 37  1  0
  5  6  1  0
  5  7  1  0
  6 38  1  0
  6 39  1  0
  7  8  2  0
  7 31  1  0
  8  9  1  0
  8 40  1  0
  9 10  2  0
  9 41  1  0
 10 11  1  0
 10 30  1  0
 11 12  1  0
 11 42  1  0
 12 13  2  0
 12 20  1  0
 13 14  1  0
 14 15  2  0
 14 21  1  0
 15 16  1  0
 15 43  1  0
 16 17  1  0
 16 20  1  0
 17 18  2  0
 17 44  1  0
 18 19  1  0
 18 45  1  0
 19 20  2  0
 21 22  2  0
 21 29  1  0
 22 23  1  0
 22 46  1  0
 23 24  2  0
 23 47  1  0
 24 25  1  0
 24 28  1  0
 25 26  2  0
 25 48  1  0
 26 27  1  0
 27 28  1  0
 27 49  1  0
 28 29  2  0
 29 50  1  0
 30 31  2  0
 30 51  1  0
 31 52  1  0
M  END
>  <s_m_entry_id>  (1) 
1021

>  <IC50[nM]>  (1) 
3.9

>  <s_m_Source_Path>  (1) 
/projects/mai/users/kmzp800_harry/pmx_colab/docking_jobs/syk

>  <s_m_Source_File>  (1) 
tnks2_lig.sdf

>  <i_m_Source_File_Index>  (1) 
34

>  <s_m_job_name>  (1) 
glide-dock_SP_tnks2_core_const

>  <r_i_docking_score>  (1) 
-6.9333975804538

>  <r_i_glide_gscore>  (1) 
-6.9333975804538

>  <r_i_glide_emodel>  (1) 
-47.3427239190131

>  <index_string>  (1) 
33:0:0

$$$$
