11:0:0
     RDKit          3D

 47 49  0  0  1  0  0  0  0  0999 V2000
  -14.7910  -19.2190  -25.8560 C   0  0  0  0  0  0  0  0  0  0  0  0
  -14.9830  -19.9060  -27.0620 C   0  0  0  0  0  0  0  0  0  0  0  0
  -14.3130  -19.9310  -24.7450 C   0  0  0  0  0  0  0  0  0  0  0  0
  -14.7040  -21.2620  -27.1480 C   0  0  0  0  0  0  0  0  0  0  0  0
  -14.0040  -21.2840  -24.8430 C   0  0  0  0  0  0  0  0  0  0  0  0
  -14.1900  -21.9690  -26.0490 C   0  0  0  0  0  0  0  0  0  0  0  0
  -15.1030  -17.7760  -25.7480 C   0  0  0  0  0  0  0  0  0  0  0  0
  -15.8350  -17.3100  -24.6660 N   0  0  0  0  0  0  0  0  0  0  0  0
  -16.1910  -16.0340  -24.3560 C   0  0  0  0  0  0  0  0  0  0  0  0
  -14.7220  -16.9120  -26.6320 N   0  0  0  0  0  0  0  0  0  0  0  0
  -14.9810  -15.5420  -26.4900 C   0  0  0  0  0  0  0  0  0  0  0  0
  -15.6860  -15.0430  -25.3860 C   0  0  0  0  0  0  0  0  0  0  0  0
  -15.9010  -13.6670  -25.2500 C   0  0  0  0  0  0  0  0  0  0  0  0
  -15.4110  -12.8010  -26.2330 C   0  0  0  0  0  0  0  0  0  0  0  0
  -14.7220  -13.3020  -27.3390 C   0  0  0  0  0  0  0  0  0  0  0  0
  -14.5090  -14.6740  -27.4730 C   0  0  0  0  0  0  0  0  0  0  0  0
  -16.8620  -15.7740  -23.3560 O   0  0  0  0  0  0  0  0  0  0  0  0
  -15.6000  -11.4670  -26.1280 F   0  0  0  0  0  0  0  0  0  0  0  0
  -13.8940  -23.4840  -26.1590 C   0  0  0  0  0  0  0  0  0  0  0  0
  -15.2230  -24.2380  -26.3820 C   0  0  0  0  0  0  0  0  0  0  0  0
  -13.1870  -23.9030  -24.8660 C   0  0  0  0  0  0  0  0  0  0  0  0
  -12.9390  -23.7070  -27.2180 O   0  0  0  0  0  0  0  0  0  0  0  0
  -12.5190  -25.0200  -27.6280 C   0  0  0  0  0  0  0  0  0  0  0  0
  -11.2000  -25.1070  -28.4230 C   0  0  0  0  0  0  0  0  0  0  0  0
  -10.9400  -23.9920  -29.2650 O   0  0  0  0  0  0  0  0  0  0  0  0
  -10.8300  -24.3120  -30.6470 C   0  0  0  0  0  0  0  0  0  0  0  0
  -15.3569  -19.3672  -27.9451 H   0  0  0  0  0  0  0  0  0  0  0  0
  -14.1809  -19.4124  -23.7840 H   0  0  0  0  0  0  0  0  0  0  0  0
  -14.8886  -21.7928  -28.0936 H   0  0  0  0  0  0  0  0  0  0  0  0
  -13.6106  -21.8191  -23.9661 H   0  0  0  0  0  0  0  0  0  0  0  0
  -16.1540  -18.0316  -24.0039 H   0  0  0  0  0  0  0  0  0  0  0  0
  -16.4481  -13.2716  -24.3815 H   0  0  0  0  0  0  0  0  0  0  0  0
  -14.3454  -12.6117  -28.1082 H   0  0  0  0  0  0  0  0  0  0  0  0
  -13.9722  -15.0682  -28.3485 H   0  0  0  0  0  0  0  0  0  0  0  0
  -15.6688  -24.4909  -25.4087 H   0  0  0  0  0  0  0  0  0  0  0  0
  -15.9166  -23.5989  -26.9481 H   0  0  0  0  0  0  0  0  0  0  0  0
  -15.0302  -25.1613  -26.9481 H   0  0  0  0  0  0  0  0  0  0  0  0
  -13.7708  -23.5570  -24.0002 H   0  0  0  0  0  0  0  0  0  0  0  0
  -13.0992  -24.9990  -24.8347 H   0  0  0  0  0  0  0  0  0  0  0  0
  -12.1834  -23.4537  -24.8347 H   0  0  0  0  0  0  0  0  0  0  0  0
  -12.4028  -25.6315  -26.7210 H   0  0  0  0  0  0  0  0  0  0  0  0
  -13.2984  -25.3704  -28.3206 H   0  0  0  0  0  0  0  0  0  0  0  0
  -10.3718  -25.1943  -27.7043 H   0  0  0  0  0  0  0  0  0  0  0  0
  -11.2927  -25.9811  -29.0844 H   0  0  0  0  0  0  0  0  0  0  0  0
  -10.4742  -25.3471  -30.7565 H   0  0  0  0  0  0  0  0  0  0  0  0
  -11.8147  -24.2101  -31.1265 H   0  0  0  0  0  0  0  0  0  0  0  0
  -10.1160  -23.6262  -31.1265 H   0  0  0  0  0  0  0  0  0  0  0  0
  1  7  1  0
  1  3  1  0
  1  2  2  0
  2  4  1  0
  3  5  2  0
  4  6  2  0
  5  6  1  0
  6 19  1  0
  7  8  1  0
  7 10  2  0
  8  9  1  0
  9 17  2  0
  9 12  1  0
 10 11  1  0
 11 12  2  0
 11 16  1  0
 12 13  1  0
 13 14  2  0
 14 18  1  0
 14 15  1  0
 15 16  2  0
 19 21  1  0
 19 20  1  0
 19 22  1  0
 22 23  1  0
 23 24  1  0
 24 25  1  0
 25 26  1  0
  2 27  1  0
  3 28  1  0
  4 29  1  0
  5 30  1  0
  8 31  1  0
 13 32  1  0
 15 33  1  0
 16 34  1  0
 20 35  1  0
 20 36  1  0
 20 37  1  0
 21 38  1  0
 21 39  1  0
 21 40  1  0
 23 41  1  0
 23 42  1  0
 24 43  1  0
 24 44  1  0
 26 45  1  0
 26 46  1  0
 26 47  1  0
M  END
>  <s_m_entry_id>  (1) 
2440

>  <MODEL>  (1) 
2

>  <REMARK>  (1) 
 VINA RESULT:   -10.186      1.523      2.559
 INTER + INTRA:         -14.449
 INTER:                 -13.866
 INTRA:                  -0.583
 UNBOUND:                -0.690
  Name = 5p
  9 active torsions:
  status: ('A' for Active; 'I' for Inactive)
    1  A    between atoms: C_1  and  C_4
    2  A    between atoms: C_7  and  C_18
    3  A    between atoms: C_18  and  O_19
    4  A    between atoms: C_18  and  C_25
    5  A    between atoms: C_18  and  C_26
    6  A    between atoms: O_19  and  C_21
    7  A    between atoms: C_21  and  C_22
    8  A    between atoms: C_22  and  O_23
    9  A    between atoms: O_23  and  C_24
                            x       y       z     vdW  Elec       q    Type
                         _______ _______ _______ _____ _____    ______ ____

>  <TORSDO>  (1) 
F 6

>  <s_m_Source_Path>  (1) 
/projects/mai/users/kmzp800_harry/pmx_colab/docking_jobs/tnks2/vina_prep/output_mcs

>  <s_m_Source_File>  (1) 
tnks_mcs_vina__all_poses.sdf

>  <i_m_Source_File_Index>  (1) 
58

>  <index_string>  (1) 
11:0:0

$$$$
