9:0:0
     RDKit          3D

 35 36  0  0  1  0  0  0  0  0999 V2000
   41.4032   17.4858   11.8526 O   0  0  0  0  0  0  0  0  0  0  0  0
   40.6051   17.3673   12.8113 C   0  0  0  0  0  0  0  0  0  0  0  0
   39.4693   17.8872   12.8570 O   0  0  0  0  0  0  0  0  0  0  0  0
   41.0232   16.5360   14.0249 C   0  0  0  0  0  0  0  0  0  0  0  0
   42.1531   15.7161   13.7285 O   0  0  0  0  0  0  0  0  0  0  0  0
   42.5394   14.9136   14.7450 C   0  0  0  0  0  0  0  0  0  0  0  0
   42.1458   13.5656   14.8929 C   0  0  0  0  0  0  0  0  0  0  0  0
   40.9836   12.7729   13.6518 Br  0  0  0  0  0  0  0  0  0  0  0  0
   42.6102   12.9150   15.9997 C   0  0  0  0  0  0  0  0  0  0  0  0
   43.6392   13.9840   16.9058 S   0  0  0  0  0  0  0  0  0  0  0  0
   43.3472   15.2879   15.7761 C   0  0  0  0  0  0  0  0  0  0  0  0
   43.9540   16.5688   16.0915 C   0  0  0  0  0  0  0  0  0  0  0  0
   44.5837   16.6850   17.1572 O   0  0  0  0  0  0  0  0  0  0  0  0
   43.8323   17.5238   15.2925 O   0  0  0  0  0  0  0  0  0  0  0  0
   42.3433   11.5646   16.4806 C   0  0  0  0  0  0  0  0  0  0  0  0
   41.0422   11.0202   16.4093 C   0  0  0  0  0  0  0  0  0  0  0  0
   40.7901    9.7093   16.8342 C   0  0  0  0  0  0  0  0  0  0  0  0
   41.8291    8.9329   17.3764 C   0  0  0  0  0  0  0  0  0  0  0  0
   43.1218    9.4781   17.4910 C   0  0  0  0  0  0  0  0  0  0  0  0
   43.3810   10.7767   17.0174 C   0  0  0  0  0  0  0  0  0  0  0  0
   44.1808    8.7080   18.0213 N   0  0  0  0  0  0  0  0  0  0  0  0
   44.2686    8.2220   19.3169 C   0  0  0  0  0  0  0  0  0  0  0  0
   43.4125    8.3091   20.1935 O   0  0  0  0  0  0  0  0  0  0  0  0
   45.4804    7.6596   19.4659 O   0  0  0  0  0  0  0  0  0  0  0  0
   45.8792    7.2071   20.7562 C   0  0  0  0  0  0  0  0  0  0  0  0
   41.2406   17.2095   14.8489 H   0  0  0  0  0  0  0  0  0  0  0  0
   40.1787   15.9144   14.3338 H   0  0  0  0  0  0  0  0  0  0  0  0
   40.2268   11.6076   16.0346 H   0  0  0  0  0  0  0  0  0  0  0  0
   39.7982    9.2913   16.7561 H   0  0  0  0  0  0  0  0  0  0  0  0
   41.6245    7.9279   17.7232 H   0  0  0  0  0  0  0  0  0  0  0  0
   44.3821   11.1710   17.0717 H   0  0  0  0  0  0  0  0  0  0  0  0
   45.0235    8.6096   17.4616 H   0  0  0  0  0  0  0  0  0  0  0  0
   46.8728    6.7621   20.6992 H   0  0  0  0  0  0  0  0  0  0  0  0
   45.9158    8.0260   21.4567 H   0  0  0  0  0  0  0  0  0  0  0  0
   45.1896    6.4461   21.1299 H   0  0  0  0  0  0  0  0  0  0  0  0
  1  2  2  0
  2  3  1  0
  2  4  1  0
  4  5  1  0
  4 26  1  0
  4 27  1  0
  5  6  1  0
  6 11  2  0
  6  7  1  0
  7  8  1  0
  7  9  2  0
  9 10  1  0
  9 15  1  0
 10 11  1  0
 11 12  1  0
 12 13  2  0
 12 14  1  0
 15 20  1  0
 15 16  2  0
 16 17  1  0
 16 28  1  0
 17 18  2  0
 17 29  1  0
 18 19  1  0
 18 30  1  0
 19 20  2  0
 19 21  1  0
 20 31  1  0
 21 22  1  0
 21 32  1  0
 22 23  2  0
 22 24  1  0
 24 25  1  0
 25 33  1  0
 25 34  1  0
 25 35  1  0
M  CHG  2   3  -1  14  -1
M  END
>  <s_m_entry_id>  (1) 
484

>  <i_f3d_flags>  (1) 
0

>  <r_epik_Ionization_Penalty>  (1) 
  0.0001

>  <r_epik_State_Penalty>  (1) 
  0.0000

>  <i_epik_Tot_Q>  (1) 
-2

>  <s_m_job_name>  (1) 
glide-dock_SP_ptp1b_core_cons

>  <r_lp_tautomer_probability>  (1) 
1

>  <r_i_docking_score>  (1) 
-5.9223343726021

>  <r_i_glide_gscore>  (1) 
-5.9223343726021

>  <r_i_glide_emodel>  (1) 
-79.54462072008

>  <index_string>  (1) 
9:0:0

$$$$
