10:0:0
     RDKit          3D

 44 46  0  0  1  0  0  0  0  0999 V2000
  -14.7630  -19.3200  -25.8090 C   0  0  0  0  0  0  0  0  0  0  0  0
  -14.2540  -20.0250  -24.7120 C   0  0  0  0  0  0  0  0  0  0  0  0
  -14.9800  -20.0140  -27.0100 C   0  0  0  0  0  0  0  0  0  0  0  0
  -13.9430  -21.3770  -24.8270 C   0  0  0  0  0  0  0  0  0  0  0  0
  -14.6810  -21.3680  -27.1190 C   0  0  0  0  0  0  0  0  0  0  0  0
  -14.1550  -22.0690  -26.0310 C   0  0  0  0  0  0  0  0  0  0  0  0
  -15.0500  -17.8670  -25.7360 C   0  0  0  0  0  0  0  0  0  0  0  0
  -15.8010  -17.3610  -24.6850 N   0  0  0  0  0  0  0  0  0  0  0  0
  -16.1610  -16.0720  -24.4320 C   0  0  0  0  0  0  0  0  0  0  0  0
  -14.6410  -17.0330  -26.6350 N   0  0  0  0  0  0  0  0  0  0  0  0
  -14.9030  -15.6580  -26.5560 C   0  0  0  0  0  0  0  0  0  0  0  0
  -15.6310  -15.1200  -25.4860 C   0  0  0  0  0  0  0  0  0  0  0  0
  -15.8540  -13.7420  -25.4060 C   0  0  0  0  0  0  0  0  0  0  0  0
  -15.3450  -12.9100  -26.4080 C   0  0  0  0  0  0  0  0  0  0  0  0
  -14.6360  -13.4500  -27.4830 C   0  0  0  0  0  0  0  0  0  0  0  0
  -14.4170  -14.8260  -27.5640 C   0  0  0  0  0  0  0  0  0  0  0  0
  -16.8560  -15.7620  -23.4620 O   0  0  0  0  0  0  0  0  0  0  0  0
  -15.5410  -11.5740  -26.3480 F   0  0  0  0  0  0  0  0  0  0  0  0
  -13.7610  -23.5620  -26.1500 C   0  0  0  0  0  0  0  0  0  0  0  0
  -15.0290  -24.3800  -26.4660 C   0  0  0  0  0  0  0  0  0  0  0  0
  -13.1050  -23.9800  -24.8220 C   0  0  0  0  0  0  0  0  0  0  0  0
  -12.7510  -23.7160  -27.1700 O   0  0  0  0  0  0  0  0  0  0  0  0
  -12.5530  -24.9380  -27.9030 C   0  0  0  0  0  0  0  0  0  0  0  0
  -11.2290  -25.0850  -28.6950 C   0  0  0  0  0  0  0  0  0  0  0  0
  -10.8780  -23.9550  -29.4720 O   0  0  0  0  0  0  0  0  0  0  0  0
  -14.0989  -19.5077  -23.7537 H   0  0  0  0  0  0  0  0  0  0  0  0
  -15.3927  -19.4788  -27.8779 H   0  0  0  0  0  0  0  0  0  0  0  0
  -13.5247  -21.9118  -23.9616 H   0  0  0  0  0  0  0  0  0  0  0  0
  -14.8602  -21.8913  -28.0698 H   0  0  0  0  0  0  0  0  0  0  0  0
  -16.1322  -18.0565  -24.0013 H   0  0  0  0  0  0  0  0  0  0  0  0
  -16.4227  -13.3177  -24.5654 H   0  0  0  0  0  0  0  0  0  0  0  0
  -14.2479  -12.7872  -28.2704 H   0  0  0  0  0  0  0  0  0  0  0  0
  -13.8656  -15.2506  -28.4159 H   0  0  0  0  0  0  0  0  0  0  0  0
  -15.5092  -24.6898  -25.5261 H   0  0  0  0  0  0  0  0  0  0  0  0
  -15.7281  -23.7622  -27.0487 H   0  0  0  0  0  0  0  0  0  0  0  0
  -14.7544  -25.2717  -27.0487 H   0  0  0  0  0  0  0  0  0  0  0  0
  -13.7034  -23.5987  -23.9815 H   0  0  0  0  0  0  0  0  0  0  0  0
  -13.0540  -25.0775  -24.7677 H   0  0  0  0  0  0  0  0  0  0  0  0
  -12.0887  -23.5626  -24.7677 H   0  0  0  0  0  0  0  0  0  0  0  0
  -12.6005  -25.7673  -27.1819 H   0  0  0  0  0  0  0  0  0  0  0  0
  -13.3421  -24.9387  -28.6693 H   0  0  0  0  0  0  0  0  0  0  0  0
  -10.4180  -25.2720  -27.9757 H   0  0  0  0  0  0  0  0  0  0  0  0
  -11.3792  -25.9145  -29.4017 H   0  0  0  0  0  0  0  0  0  0  0  0
  -10.6442  -23.2023  -28.8729 H   0  0  0  0  0  0  0  0  0  0  0  0
  1  7  1  0
  1  2  2  0
  1  3  1  0
  2  4  1  0
  3  5  2  0
  4  6  2  0
  5  6  1  0
  6 19  1  0
  7  8  1  0
  7 10  2  0
  8  9  1  0
  9 17  2  0
  9 12  1  0
 10 11  1  0
 11 12  2  0
 11 16  1  0
 12 13  1  0
 13 14  2  0
 14 18  1  0
 14 15  1  0
 15 16  2  0
 19 21  1  0
 19 20  1  0
 19 22  1  0
 22 23  1  0
 23 24  1  0
 24 25  1  0
  2 26  1  0
  3 27  1  0
  4 28  1  0
  5 29  1  0
  8 30  1  0
 13 31  1  0
 15 32  1  0
 16 33  1  0
 20 34  1  0
 20 35  1  0
 20 36  1  0
 21 37  1  0
 21 38  1  0
 21 39  1  0
 23 40  1  0
 23 41  1  0
 24 42  1  0
 24 43  1  0
 25 44  1  0
M  END
>  <s_m_entry_id>  (1) 
2436

>  <MODEL>  (1) 
2

>  <REMARK>  (1) 
 VINA RESULT:   -10.457      1.341      1.967
 INTER + INTRA:         -14.175
 INTER:                 -13.641
 INTRA:                  -0.534
 UNBOUND:                -0.356
  Name = 5n
  8 active torsions:
  status: ('A' for Active; 'I' for Inactive)
    1  A    between atoms: C_1  and  C_4
    2  A    between atoms: C_7  and  C_18
    3  A    between atoms: C_18  and  C_19
    4  A    between atoms: C_18  and  C_20
    5  A    between atoms: C_18  and  O_21
    6  A    between atoms: O_21  and  C_23
    7  A    between atoms: C_23  and  C_24
    8  A    between atoms: C_24  and  O_25
                            x       y       z     vdW  Elec       q    Type
                         _______ _______ _______ _____ _____    ______ ____

>  <TORSDO>  (1) 
F 6

>  <s_m_Source_Path>  (1) 
/projects/mai/users/kmzp800_harry/pmx_colab/docking_jobs/tnks2/vina_prep/output_mcs

>  <s_m_Source_File>  (1) 
tnks_mcs_vina__all_poses.sdf

>  <i_m_Source_File_Index>  (1) 
54

>  <index_string>  (1) 
10:0:0

$$$$
