41:0:0
     RDKit          3D

 48 52  0  0  1  0  0  0  0  0999 V2000
    5.5430   -0.6120   16.3020 C   0  0  0  0  0  0  0  0  0  0  0  0
    4.2610   -1.0390   16.1870 N   0  0  0  0  0  0  0  0  0  0  0  0
    3.7710   -0.3000   15.1770 C   0  0  0  0  0  0  0  0  0  0  0  0
    2.4810   -0.3510   14.6550 C   0  0  0  0  0  0  0  0  0  0  0  0
    1.5160   -1.2610   15.1990 N   0  0  0  0  0  0  0  0  0  0  0  0
    2.1810    0.4910   13.6200 N   0  0  0  0  0  0  0  0  0  0  0  0
    3.1030    1.3620   13.0980 C   0  0  0  0  0  0  0  0  0  0  0  0
    4.4000    1.3930   13.6470 C   0  0  0  0  0  0  0  0  0  0  0  0
    4.6690    0.5480   14.6690 N   0  0  0  0  0  0  0  0  0  0  0  0
    5.8040    0.3790   15.3590 C   0  0  0  0  0  0  0  0  0  0  0  0
    2.7340    2.2540   11.9800 C   0  0  0  0  0  0  0  0  0  0  0  0
    3.7210    2.6680   11.0520 C   0  0  0  0  0  0  0  0  0  0  0  0
    3.3960    3.5180    9.9790 C   0  0  0  0  0  0  0  0  0  0  0  0
    2.0730    3.9340    9.8630 C   0  0  0  0  0  0  0  0  0  0  0  0
    1.1150    3.5410   10.7510 C   0  0  0  0  0  0  0  0  0  0  0  0
    1.4030    2.7020   11.8230 C   0  0  0  0  0  0  0  0  0  0  0  0
   -0.0760    4.1120   10.3740 C   0  0  0  0  0  0  0  0  0  0  0  0
    0.2480    4.8460    9.2320 C   0  0  0  0  0  0  0  0  0  0  0  0
    1.5640    4.7370    8.9190 N   0  0  0  0  0  0  0  0  0  0  0  0
    0.1540   -1.4430   14.7860 C   0  0  0  0  0  0  0  0  0  0  0  0
   -0.4860   -2.6430   15.1090 C   0  0  0  0  0  0  0  0  0  0  0  0
   -1.8100   -2.8630   14.7280 C   0  0  0  0  0  0  0  0  0  0  0  0
   -2.5160   -1.8820   14.0130 C   0  0  0  0  0  0  0  0  0  0  0  0
   -1.8830   -0.6760   13.6830 C   0  0  0  0  0  0  0  0  0  0  0  0
   -0.5490   -0.4630   14.0730 C   0  0  0  0  0  0  0  0  0  0  0  0
   -3.8440   -2.0870   13.6220 O   0  0  0  0  0  0  0  0  0  0  0  0
   -4.2580   -3.2130   12.8590 C   0  0  0  0  0  0  0  0  0  0  0  0
   -2.5960    0.2940   12.9710 O   0  0  0  0  0  0  0  0  0  0  0  0
   -1.9640    1.3280   12.2310 C   0  0  0  0  0  0  0  0  0  0  0  0
    6.2708   -0.9929   17.0336 H   0  0  0  0  0  0  0  0  0  0  0  0
    1.8381   -1.8535   15.9775 H   0  0  0  0  0  0  0  0  0  0  0  0
    5.1667    2.0796   13.2587 H   0  0  0  0  0  0  0  0  0  0  0  0
    6.7527    0.9156   15.2107 H   0  0  0  0  0  0  0  0  0  0  0  0
    4.7574    2.3196   11.1722 H   0  0  0  0  0  0  0  0  0  0  0  0
    4.1604    3.8422    9.2575 H   0  0  0  0  0  0  0  0  0  0  0  0
    0.6165    2.3960   12.5286 H   0  0  0  0  0  0  0  0  0  0  0  0
   -1.0580    4.0136   10.8598 H   0  0  0  0  0  0  0  0  0  0  0  0
   -0.4757    5.4408    8.6554 H   0  0  0  0  0  0  0  0  0  0  0  0
    2.0614    5.1747    8.1304 H   0  0  0  0  0  0  0  0  0  0  0  0
    0.0579   -3.4191   15.6674 H   0  0  0  0  0  0  0  0  0  0  0  0
   -2.3038   -3.8106   14.9892 H   0  0  0  0  0  0  0  0  0  0  0  0
   -0.0517    0.4838   13.8154 H   0  0  0  0  0  0  0  0  0  0  0  0
   -4.5568   -4.0258   13.5373 H   0  0  0  0  0  0  0  0  0  0  0  0
   -5.1117   -2.9323   12.2247 H   0  0  0  0  0  0  0  0  0  0  0  0
   -3.4258   -3.5521   12.2247 H   0  0  0  0  0  0  0  0  0  0  0  0
   -1.5189    2.0562   12.9250 H   0  0  0  0  0  0  0  0  0  0  0  0
   -1.1754    0.8960   11.5973 H   0  0  0  0  0  0  0  0  0  0  0  0
   -2.7081    1.8328   11.5973 H   0  0  0  0  0  0  0  0  0  0  0  0
  1  2  1  0
  1 10  2  0
  2  3  2  0
  3  4  1  0
  3  9  1  0
  4  5  1  0
  4  6  2  0
  5 20  1  0
  6  7  1  0
  7  8  2  0
  7 11  1  0
  8  9  1  0
  9 10  1  0
 11 12  2  0
 11 16  1  0
 12 13  1  0
 13 14  2  0
 14 15  1  0
 14 19  1  0
 15 16  2  0
 15 17  1  0
 17 18  2  0
 18 19  1  0
 20 21  2  0
 20 25  1  0
 21 22  1  0
 22 23  2  0
 23 24  1  0
 23 26  1  0
 24 25  2  0
 24 28  1  0
 26 27  1  0
 28 29  1  0
  1 30  1  0
  5 31  1  0
  8 32  1  0
 10 33  1  0
 12 34  1  0
 13 35  1  0
 16 36  1  0
 17 37  1  0
 18 38  1  0
 19 39  1  0
 21 40  1  0
 22 41  1  0
 25 42  1  0
 27 43  1  0
 27 44  1  0
 27 45  1  0
 29 46  1  0
 29 47  1  0
 29 48  1  0
M  END
>  <s_m_entry_id>  (1) 
1173

>  <MODEL>  (1) 
1

>  <REMARK>  (1) 
 VINA RESULT:   -10.066      0.000      0.000
 INTER + INTRA:         -12.194
 INTER:                 -11.730
 INTRA:                  -0.464
 UNBOUND:                 0.225
  Name = /scratch/kmzp800/tmp0jjcmmcp/tmp8hecfvap.pdb
  6 active torsions:
  status: ('A' for Active; 'I' for Inactive)
    1  A    between atoms: N2_5  and  C4_6
    2  A    between atoms: C7_9  and  O1_10
    3  A    between atoms: O1_10  and  C8_11
    4  A    between atoms: C9_12  and  O2_13
    5  A    between atoms: O2_13  and  C10_14
    6  A    between atoms: C12_17  and  C13_18
                            x       y       z     vdW  Elec       q    Type
                         _______ _______ _______ _____ _____    ______ ____

>  <TORSDO>  (1) 
F 4

>  <grid_id>  (1) 
syk-prepared

>  <grid_path>  (1) 
syk_vina.pdbqt

>  <grid_filename>  (1) 
syk_vina.pdbqt

>  <docking_score>  (1) 
-10.066

>  <compound_name>  (1) 
CHEMBL3265020

>  <index_string>  (1) 
41:0:0

>  <s_m_Source_Path>  (1) 
/projects/mai/users/kmzp800_harry/pmx_colab/docking_jobs/syk/vina_prep/output

>  <s_m_Source_File>  (1) 
ptp1b_docked_conformers.sdf

>  <i_m_Source_File_Index>  (1) 
997

$$$$
