11:0:0
     RDKit          3D

 60 63  0  0  1  0  0  0  0  0999 V2000
   40.8610   10.0710   18.3990 C   0  0  0  0  0  0  0  0  0  0  0  0
   41.7600    9.0130   18.2410 C   0  0  0  0  0  0  0  0  0  0  0  0
   42.8910    9.1690   17.4350 C   0  0  0  0  0  0  0  0  0  0  0  0
   43.1270   10.3840   16.7840 C   0  0  0  0  0  0  0  0  0  0  0  0
   42.2370   11.4560   16.9320 C   0  0  0  0  0  0  0  0  0  0  0  0
   41.1070   11.2850   17.7430 C   0  0  0  0  0  0  0  0  0  0  0  0
   42.4650   12.7630   16.2720 C   0  0  0  0  0  0  0  0  0  0  0  0
   43.4810   13.9610   16.8840 S   0  0  0  0  0  0  0  0  0  0  0  0
   43.2540   15.0860   15.6570 C   0  0  0  0  0  0  0  0  0  0  0  0
   42.3770   14.5250   14.7190 C   0  0  0  0  0  0  0  0  0  0  0  0
   41.9220   13.2420   15.0710 C   0  0  0  0  0  0  0  0  0  0  0  0
   40.8000   12.3590   14.0430 Cl  0  0  0  0  0  0  0  0  0  0  0  0
   43.8100   16.4480   15.6930 C   0  0  0  0  0  0  0  0  0  0  0  0
   44.9840   16.6340   16.1050 O   0  0  0  0  0  0  0  0  0  0  0  0
   43.0330   17.5450   15.3420 O   0  0  0  0  0  0  0  0  0  0  0  0
   41.9820   15.1220   13.5150 O   0  0  0  0  0  0  0  0  0  0  0  0
   40.6670   15.6110   13.2740 C   0  0  0  0  0  0  0  0  0  0  0  0
   40.7230   16.9920   12.7180 C   0  0  0  0  0  0  0  0  0  0  0  0
   41.8090   17.4490   12.2780 O   0  0  0  0  0  0  0  0  0  0  0  0
   39.5700   17.7600   12.6510 O   0  0  0  0  0  0  0  0  0  0  0  0
   39.7050    9.8950   19.2310 N   0  0  0  0  0  0  0  0  0  0  0  0
   36.8860    7.1820   17.6310 N   0  0  0  0  0  0  0  0  0  0  0  0
   37.0980    8.4170   16.8530 C   0  0  0  0  0  0  0  0  0  0  0  0
   38.2890    9.2680   17.3190 C   0  0  0  0  0  0  0  0  0  0  0  0
   38.4920    9.1830   18.8340 C   0  0  0  0  0  0  0  0  0  0  0  0
   38.5280    7.7400   19.3570 C   0  0  0  0  0  0  0  0  0  0  0  0
   38.1130    6.7340   18.2880 C   0  0  0  0  0  0  0  0  0  0  0  0
   36.4230    5.9390   16.5120 S   0  0  0  0  0  0  0  0  0  0  0  0
   35.3860    5.0570   17.1520 O   0  0  0  0  0  0  0  0  0  0  0  0
   35.8370    6.5670   15.2780 O   0  0  0  0  0  0  0  0  0  0  0  0
   37.8480    4.9570   16.0620 C   0  0  0  0  0  0  0  0  0  0  0  0
   39.7400    6.5380   12.5550 C   0  0  0  0  0  0  0  0  0  0  0  0
   38.8890    5.4330   12.4530 C   0  0  0  0  0  0  0  0  0  0  0  0
   38.2730    4.9170   13.5960 C   0  0  0  0  0  0  0  0  0  0  0  0
   38.5100    5.5040   14.8450 C   0  0  0  0  0  0  0  0  0  0  0  0
   39.3570    6.6110   14.9460 C   0  0  0  0  0  0  0  0  0  0  0  0
   39.9730    7.1280   13.8020 C   0  0  0  0  0  0  0  0  0  0  0  0
   41.5773    8.0560   18.7517 H   0  0  0  0  0  0  0  0  0  0  0  0
   43.5970    8.3344   17.3124 H   0  0  0  0  0  0  0  0  0  0  0  0
   44.0188   10.4990   16.1504 H   0  0  0  0  0  0  0  0  0  0  0  0
   40.4002   12.1187   17.8670 H   0  0  0  0  0  0  0  0  0  0  0  0
   40.1603   14.9505   12.5549 H   0  0  0  0  0  0  0  0  0  0  0  0
   40.1124   15.6298   14.2238 H   0  0  0  0  0  0  0  0  0  0  0  0
   39.7322   10.3003   20.1775 H   0  0  0  0  0  0  0  0  0  0  0  0
   37.2664    8.1366   15.8028 H   0  0  0  0  0  0  0  0  0  0  0  0
   36.1985    9.0341   16.9951 H   0  0  0  0  0  0  0  0  0  0  0  0
   39.2001    8.9099   16.8173 H   0  0  0  0  0  0  0  0  0  0  0  0
   38.0809   10.3168   17.0608 H   0  0  0  0  0  0  0  0  0  0  0  0
   37.6162    9.6656   19.2924 H   0  0  0  0  0  0  0  0  0  0  0  0
   39.5515    7.5069   19.6858 H   0  0  0  0  0  0  0  0  0  0  0  0
   37.8149    7.6631   20.1910 H   0  0  0  0  0  0  0  0  0  0  0  0
   37.9385    5.7546   18.7573 H   0  0  0  0  0  0  0  0  0  0  0  0
   38.9145    6.6507   17.5392 H   0  0  0  0  0  0  0  0  0  0  0  0
   38.5661    4.9621   16.8952 H   0  0  0  0  0  0  0  0  0  0  0  0
   37.5135    3.9312   15.8481 H   0  0  0  0  0  0  0  0  0  0  0  0
   40.2260    6.9431   11.6552 H   0  0  0  0  0  0  0  0  0  0  0  0
   38.7045    4.9699   11.4725 H   0  0  0  0  0  0  0  0  0  0  0  0
   37.6017    4.0494   13.5147 H   0  0  0  0  0  0  0  0  0  0  0  0
   39.5393    7.0760   15.9261 H   0  0  0  0  0  0  0  0  0  0  0  0
   40.6407    7.9985   13.8825 H   0  0  0  0  0  0  0  0  0  0  0  0
  1 21  1  0
  1  2  2  0
  1  6  1  0
  2  3  1  0
  2 38  1  0
  3  4  2  0
  3 39  1  0
  4  5  1  0
  4 40  1  0
  5  6  2  0
  5  7  1  0
  6 41  1  0
  7  8  1  0
  7 11  2  0
  8  9  1  0
  9 13  1  0
  9 10  2  0
 10 11  1  0
 10 16  1  0
 11 12  1  0
 13 14  1  0
 13 15  2  0
 16 17  1  0
 17 18  1  0
 17 42  1  0
 17 43  1  0
 18 19  2  0
 18 20  1  0
 21 25  1  0
 21 44  1  0
 22 27  1  0
 22 23  1  0
 22 28  1  0
 23 24  1  0
 23 45  1  0
 23 46  1  0
 24 25  1  0
 24 47  1  0
 24 48  1  0
 25 26  1  0
 25 49  1  0
 26 27  1  0
 26 50  1  0
 26 51  1  0
 27 52  1  0
 27 53  1  0
 28 29  2  0
 28 30  2  0
 28 31  1  0
 31 35  1  0
 31 54  1  0
 31 55  1  0
 32 37  2  0
 32 33  1  0
 32 56  1  0
 33 34  2  0
 33 57  1  0
 34 35  1  0
 34 58  1  0
 35 36  2  0
 36 37  1  0
 36 59  1  0
 37 60  1  0
M  CHG  2  14  -1  20  -1
M  END
>  <s_m_entry_id>  (1) 
1228

>  <MODEL>  (1) 
2

>  <REMARK>  (1) 
 VINA RESULT:    -8.011      1.929      2.661
 INTER + INTRA:         -14.079
 INTER:                 -12.399
 INTRA:                  -1.680
 UNBOUND:                -1.384
  Name = /scratch/kmzp800/tmp9a9psuuh/tmpg7542g1_.pdb
  10 active torsions:
  status: ('A' for Active; 'I' for Inactive)
    1  A    between atoms: C4_4  and  C5_5
    2  A    between atoms: C5_5  and  S1_6
    3  A    between atoms: S1_6  and  N1_9
    4  A    between atoms: C8_12  and  N2_13
    5  A    between atoms: N2_13  and  C9_14
    6  A    between atoms: C13_18  and  C14_19
    7  A    between atoms: C15_21  and  C16_22
    8  A    between atoms: C17_25  and  O5_26
    9  A    between atoms: O5_26  and  C18_27
   10  A    between atoms: C18_27  and  C19_28
                            x       y       z     vdW  Elec       q    Type
                         _______ _______ _______ _____ _____    ______ ____

>  <TORSDO>  (1) 
F 10

>  <grid_id>  (1) 
ptp1b-prepared

>  <grid_path>  (1) 
ptp1b_vina.pdbqt

>  <grid_filename>  (1) 
ptp1b_vina.pdbqt

>  <docking_score>  (1) 
-8.011

>  <compound_name>  (1) 
lig_23486

>  <index_string>  (1) 
11:0:0

>  <s_m_Source_Path>  (1) 
/projects/mai/users/kmzp800_harry/pmx_colab/docking_jobs/ptp1b

>  <s_m_Source_File>  (1) 
ptp1b_confs_vina_mcs.sdf

>  <i_m_Source_File_Index>  (1) 
12

$$$$
