17:0:0
     RDKit          3D

 45 48  0  0  1  0  0  0  0  0999 V2000
  -14.3986  -14.8875  -27.7265 C   0  0  0  0  0  0  0  0  0  0  0  0
  -15.0145  -15.6323  -26.7101 C   0  0  0  0  0  0  0  0  0  0  0  0
  -14.4530  -13.4938  -27.6942 C   0  0  0  0  0  0  0  0  0  0  0  0
  -15.7438  -15.0120  -25.6754 C   0  0  0  0  0  0  0  0  0  0  0  0
  -14.8479  -17.0181  -26.7576 N   0  0  0  0  0  0  0  0  0  0  0  0
  -15.1823  -12.8586  -26.6807 C   0  0  0  0  0  0  0  0  0  0  0  0
  -15.8386  -13.6002  -25.6635 C   0  0  0  0  0  0  0  0  0  0  0  0
  -16.3786  -15.9282  -24.6567 C   0  0  0  0  0  0  0  0  0  0  0  0
  -16.1150  -17.2280  -24.8108 N   0  0  0  0  0  0  0  0  0  0  0  0
  -17.1010  -15.5725  -23.7405 O   0  0  0  0  0  0  0  0  0  0  0  0
  -15.3646  -17.7802  -25.8433 C   0  0  0  0  0  0  0  0  0  0  0  0
  -15.2061  -19.2510  -25.9322 C   0  0  0  0  0  0  0  0  0  0  0  0
  -14.7790  -19.8297  -27.1433 C   0  0  0  0  0  0  0  0  0  0  0  0
  -14.5645  -21.1990  -27.2409 C   0  0  0  0  0  0  0  0  0  0  0  0
  -14.8080  -22.0198  -26.1332 C   0  0  0  0  0  0  0  0  0  0  0  0
  -15.2629  -21.4596  -24.9218 C   0  0  0  0  0  0  0  0  0  0  0  0
  -15.4553  -20.0737  -24.8151 C   0  0  0  0  0  0  0  0  0  0  0  0
  -15.2481  -11.5183  -26.7385 F   0  0  0  0  0  0  0  0  0  0  0  0
  -14.4055  -23.3625  -26.1510 N   0  0  0  0  0  0  0  0  0  0  0  0
  -14.8482  -24.2747  -27.1967 C   0  0  0  0  0  0  0  0  0  0  0  0
  -13.6632  -25.0457  -27.8062 C   0  0  0  0  0  0  0  0  0  0  0  0
  -12.7974  -25.6299  -26.7513 N   0  0  0  0  0  0  0  0  0  0  0  0
  -12.2798  -24.5897  -25.8322 C   0  0  0  0  0  0  0  0  0  0  0  0
  -13.4114  -23.7851  -25.1692 C   0  0  0  0  0  0  0  0  0  0  0  0
  -11.7180  -26.4785  -27.3026 C   0  0  0  0  0  0  0  0  0  0  0  0
  -13.9642  -12.9060  -28.4577 H   0  0  0  0  0  0  0  0  0  0  0  0
  -16.4004  -13.0928  -24.8916 H   0  0  0  0  0  0  0  0  0  0  0  0
  -16.5692  -17.8560  -24.1602 H   0  0  0  0  0  0  0  0  0  0  0  0
  -14.5634  -19.2187  -28.0084 H   0  0  0  0  0  0  0  0  0  0  0  0
  -14.1525  -21.5726  -28.1583 H   0  0  0  0  0  0  0  0  0  0  0  0
  -15.4205  -22.0852  -24.0553 H   0  0  0  0  0  0  0  0  0  0  0  0
  -15.7731  -19.6610  -23.8688 H   0  0  0  0  0  0  0  0  0  0  0  0
  -15.3746  -23.7309  -27.9794 H   0  0  0  0  0  0  0  0  0  0  0  0
  -15.5636  -24.9718  -26.7583 H   0  0  0  0  0  0  0  0  0  0  0  0
  -14.0381  -25.8314  -28.4630 H   0  0  0  0  0  0  0  0  0  0  0  0
  -13.0627  -24.3749  -28.4223 H   0  0  0  0  0  0  0  0  0  0  0  0
  -11.6487  -25.0386  -25.0615 H   0  0  0  0  0  0  0  0  0  0  0  0
  -11.6500  -23.9226  -26.4189 H   0  0  0  0  0  0  0  0  0  0  0  0
  -13.8962  -24.3683  -24.3905 H   0  0  0  0  0  0  0  0  0  0  0  0
  -12.9762  -22.9194  -24.6670 H   0  0  0  0  0  0  0  0  0  0  0  0
  -11.0292  -25.8932  -27.9137 H   0  0  0  0  0  0  0  0  0  0  0  0
  -11.1474  -26.9460  -26.4987 H   0  0  0  0  0  0  0  0  0  0  0  0
  -12.1306  -27.2759  -27.9219 H   0  0  0  0  0  0  0  0  0  0  0  0
  -13.3860  -26.2355  -26.1983 H   0  0  0  0  0  0  0  0  0  0  0  0
  -13.8474  -15.3849  -28.5113 H   0  0  0  0  0  0  0  0  0  0  0  0
  1  2  2  0
  1  3  1  0
  1 45  1  0
  2  4  1  0
  2  5  1  0
  3  6  2  0
  3 26  1  0
  4  7  2  0
  4  8  1  0
  5 11  2  0
  6  7  1  0
  6 18  1  0
  7 27  1  0
  8  9  1  0
  8 10  2  0
  9 11  1  0
  9 28  1  0
 11 12  1  0
 12 13  2  0
 12 17  1  0
 13 14  1  0
 13 29  1  0
 14 15  2  0
 14 30  1  0
 15 16  1  0
 15 19  1  0
 16 17  2  0
 16 31  1  0
 17 32  1  0
 19 20  1  0
 19 24  1  0
 20 21  1  0
 20 33  1  0
 20 34  1  0
 21 22  1  0
 21 35  1  0
 21 36  1  0
 22 23  1  0
 22 25  1  0
 22 44  1  0
 23 24  1  0
 23 37  1  0
 23 38  1  0
 24 39  1  0
 24 40  1  0
 25 41  1  0
 25 42  1  0
 25 43  1  0
M  CHG  1  22   1
M  END
>  <s_m_entry_id>  (1) 
459

>  <Name>  (1) 
8a

>  <IC50[nM]>  (1) 
12

>  <s_m_Source_Path>  (1) 
/projects/mai/users/kmzp800_harry/pmx_colab/docking_jobs/tnks2

>  <s_m_Source_File>  (1) 
tnks2_lig.sdf

>  <i_m_Source_File_Index>  (1) 
18

>  <s_m_job_name>  (1) 
glide-dock_SP_tnks2_core_const

>  <r_i_docking_score>  (1) 
-10.7527402741762

>  <r_i_glide_gscore>  (1) 
-10.7527402741762

>  <r_i_glide_emodel>  (1) 
-49.4781159144963

>  <index_string>  (1) 
17:0:0

$$$$
