4:0:0
     RDKit          3D

 59 63  0  0  1  0  0  0  0  0999 V2000
   34.4123   35.0728   21.1491 C   0  0  0  0  0  0  0  0  0  0  0  0
   34.0391   39.0001   23.8237 C   0  0  0  0  0  0  0  0  0  0  0  0
   34.7858   37.8864   21.5019 C   0  0  0  0  0  0  0  0  0  0  0  0
   35.1573   37.2375   20.2532 C   0  0  0  0  0  0  0  0  0  0  0  0
   34.2530   37.0936   22.5384 C   0  0  0  0  0  0  0  0  0  0  0  0
   34.9119   39.2712   21.7405 C   0  0  0  0  0  0  0  0  0  0  0  0
   34.9838   35.9082   20.0909 C   0  0  0  0  0  0  0  0  0  0  0  0
   34.5461   39.8303   22.9151 N   0  0  0  0  0  0  0  0  0  0  0  0
   34.1903   33.8794   20.9403 O   0  0  0  0  0  0  0  0  0  0  0  0
   34.1423   35.6701   22.3505 N   0  0  0  0  0  0  0  0  0  0  0  0
   33.8666   37.6948   23.6787 N   0  0  0  0  0  0  0  0  0  0  0  0
   33.6872   39.5495   25.0362 N   0  0  0  0  0  0  0  0  0  0  0  0
   35.5486   37.8627   19.4641 H   0  0  0  0  0  0  0  0  0  0  0  0
   35.3159   39.9336   20.9911 H   0  0  0  0  0  0  0  0  0  0  0  0
   33.8240   40.5489   25.1420 H   0  0  0  0  0  0  0  0  0  0  0  0
   34.3086   33.9493   25.8327 C   0  0  0  0  0  0  0  0  0  0  0  0
   34.6305   34.9565   24.7301 C   0  0  0  0  0  0  0  0  0  0  0  0
   33.6999   34.8228   23.4957 C   0  0  0  0  0  0  0  0  0  0  0  0
   32.1979   35.0223   23.8114 C   0  0  0  0  0  0  0  0  0  0  0  0
   31.6635   33.9807   24.8026 C   0  0  0  0  0  0  0  0  0  0  0  0
   34.4635   32.9357   25.4995 H   0  0  0  0  0  0  0  0  0  0  0  0
   34.9519   34.1033   26.6905 H   0  0  0  0  0  0  0  0  0  0  0  0
   35.6677   34.8188   24.4207 H   0  0  0  0  0  0  0  0  0  0  0  0
   34.5858   35.9397   25.1908 H   0  0  0  0  0  0  0  0  0  0  0  0
   33.7909   33.7678   23.2325 H   0  0  0  0  0  0  0  0  0  0  0  0
   32.0065   36.0155   24.2162 H   0  0  0  0  0  0  0  0  0  0  0  0
   31.6182   34.9529   22.8898 H   0  0  0  0  0  0  0  0  0  0  0  0
   31.7720   32.9689   24.4114 H   0  0  0  0  0  0  0  0  0  0  0  0
   30.6055   34.1460   25.0112 H   0  0  0  0  0  0  0  0  0  0  0  0
   32.5732   34.0791   26.3949 S   0  0  0  0  0  0  0  0  0  0  0  0
   32.2479   32.8995   27.2092 O   0  0  0  0  0  0  0  0  0  0  0  0
   32.3958   35.4314   26.9383 O   0  0  0  0  0  0  0  0  0  0  0  0
   33.5176   38.5161   28.7019 C   0  0  0  0  0  0  0  0  0  0  0  0
   34.0804   39.1831   27.4371 C   0  0  0  0  0  0  0  0  0  0  0  0
   33.2222   38.8271   26.2160 C   0  0  0  0  0  0  0  0  0  0  0  0
   31.7519   39.1497   26.5169 C   0  0  0  0  0  0  0  0  0  0  0  0
   31.3102   38.5060   27.8442 C   0  0  0  0  0  0  0  0  0  0  0  0
   32.1699   38.9297   28.8971 O   0  0  0  0  0  0  0  0  0  0  0  0
   34.1044   38.8087   29.5725 H   0  0  0  0  0  0  0  0  0  0  0  0
   33.5736   37.4287   28.6301 H   0  0  0  0  0  0  0  0  0  0  0  0
   34.0989   40.2649   27.5809 H   0  0  0  0  0  0  0  0  0  0  0  0
   35.1120   38.8680   27.2769 H   0  0  0  0  0  0  0  0  0  0  0  0
   33.3047   37.7514   26.0620 H   0  0  0  0  0  0  0  0  0  0  0  0
   31.1132   38.8039   25.7034 H   0  0  0  0  0  0  0  0  0  0  0  0
   31.6180   40.2303   26.5835 H   0  0  0  0  0  0  0  0  0  0  0  0
   30.2871   38.7903   28.0853 H   0  0  0  0  0  0  0  0  0  0  0  0
   31.3020   37.4214   27.7813 H   0  0  0  0  0  0  0  0  0  0  0  0
   35.2534   35.2504   18.9169 O   0  0  0  0  0  0  0  0  0  0  0  0
   37.9035   36.6063   15.9771 C   0  0  0  0  0  0  0  0  0  0  0  0
   38.4013   36.3493   17.2717 C   0  0  0  0  0  0  0  0  0  0  0  0
   37.5115   35.9980   18.3074 C   0  0  0  0  0  0  0  0  0  0  0  0
   36.1545   35.7294   18.0031 C   0  0  0  0  0  0  0  0  0  0  0  0
   35.7323   35.8197   16.6699 C   0  0  0  0  0  0  0  0  0  0  0  0
   36.5632   36.3473   15.6772 C   0  0  0  0  0  0  0  0  0  0  0  0
   38.6844   37.1493   15.0280 F   0  0  0  0  0  0  0  0  0  0  0  0
   39.4363   36.5584   17.4986 H   0  0  0  0  0  0  0  0  0  0  0  0
   37.9697   35.9183   19.5763 F   0  0  0  0  0  0  0  0  0  0  0  0
   34.7147   35.5494   16.4235 H   0  0  0  0  0  0  0  0  0  0  0  0
   36.1778   36.5415   14.6892 H   0  0  0  0  0  0  0  0  0  0  0  0
  1  7  1  0
  1  9  2  0
  1 10  1  0
  2  8  1  0
  2 11  2  0
  2 12  1  0
  3  4  1  0
  3  5  2  0
  3  6  1  0
  4  7  2  0
  4 13  1  0
  5 10  1  0
  5 11  1  0
  6  8  2  0
  6 14  1  0
  7 48  1  0
 10 18  1  0
 12 15  1  0
 12 35  1  0
 16 17  1  0
 16 21  1  0
 16 22  1  0
 16 30  1  0
 17 18  1  0
 17 23  1  0
 17 24  1  0
 18 19  1  0
 18 25  1  0
 19 20  1  0
 19 26  1  0
 19 27  1  0
 20 28  1  0
 20 29  1  0
 20 30  1  0
 30 31  2  0
 30 32  2  0
 33 34  1  0
 33 38  1  0
 33 39  1  0
 33 40  1  0
 34 35  1  0
 34 41  1  0
 34 42  1  0
 35 36  1  0
 35 43  1  0
 36 37  1  0
 36 44  1  0
 36 45  1  0
 37 38  1  0
 37 46  1  0
 37 47  1  0
 48 52  1  0
 49 50  2  0
 49 54  1  0
 49 55  1  0
 50 51  1  0
 50 56  1  0
 51 52  2  0
 51 57  1  0
 52 53  1  0
 53 54  2  0
 53 58  1  0
 54 59  1  0
M  END
>  <s_m_entry_id>  (1) 
822

>  <s_m_Source_Path>  (1) 
/projects/mai/users/kmzp800_harry/pmx_colab/docking_jobs/p38/glide-dock_SP_p38_mcs_docking_2

>  <s_m_Source_File>  (1) 
glide-dock_SP_p38_mcs_docking_2_pv.maegz

>  <i_m_Source_File_Index>  (1) 
6

>  <s_pdb_PDB_TITLE>  (1) 
MX MODEL

>  <r_i_docking_score>  (1) 
-7.59879038713607

>  <r_i_glide_gscore>  (1) 
-7.59879038713607

>  <r_i_glide_emodel>  (1) 
-63.7245262503479

>  <index_string>  (1) 
4:0:0

$$$$
