16:0:0
     RDKit          3D

 43 45  0  0  1  0  0  0  0  0999 V2000
   39.1916   17.5173   12.6720 O   0  0  0  0  0  0  0  0  0  0  0  0
   40.3605   17.0695   12.6889 C   0  0  0  0  0  0  0  0  0  0  0  0
   41.2234   17.3023   11.8120 O   0  0  0  0  0  0  0  0  0  0  0  0
   40.7519   16.1475   13.8458 C   0  0  0  0  0  0  0  0  0  0  0  0
   42.1090   15.7267   13.7344 O   0  0  0  0  0  0  0  0  0  0  0  0
   42.5176   14.9282   14.7448 C   0  0  0  0  0  0  0  0  0  0  0  0
   42.1647   13.5649   14.8797 C   0  0  0  0  0  0  0  0  0  0  0  0
   41.1736   12.6864   13.5408 Br  0  0  0  0  0  0  0  0  0  0  0  0
   42.6105   12.9372   16.0054 C   0  0  0  0  0  0  0  0  0  0  0  0
   42.3415   11.5890   16.4788 C   0  0  0  0  0  0  0  0  0  0  0  0
   43.3836   10.7665   16.9473 C   0  0  0  0  0  0  0  0  0  0  0  0
   43.1189    9.4566   17.3752 C   0  0  0  0  0  0  0  0  0  0  0  0
   41.8123    8.9569   17.3265 C   0  0  0  0  0  0  0  0  0  0  0  0
   40.7521    9.7609   16.8672 C   0  0  0  0  0  0  0  0  0  0  0  0
   39.4429    9.2682   16.8306 N   0  0  0  0  0  0  0  0  0  0  0  0
   39.1856    7.8331   16.8863 C   0  0  0  0  0  0  0  0  0  0  0  0
   37.7000    7.5759   17.1571 C   0  0  0  0  0  0  0  0  0  0  0  0
   36.8547    7.9670   15.9342 C   0  0  0  0  0  0  0  0  0  0  0  0
   37.3033    7.2587   14.7831 O   0  0  0  0  0  0  0  0  0  0  0  0
   38.6527    7.5561   14.4321 C   0  0  0  0  0  0  0  0  0  0  0  0
   39.5954    7.1405   15.5741 C   0  0  0  0  0  0  0  0  0  0  0  0
   41.0235   11.0822   16.4565 C   0  0  0  0  0  0  0  0  0  0  0  0
   43.6261   14.0151   16.9117 S   0  0  0  0  0  0  0  0  0  0  0  0
   43.3518   15.3140   15.7614 C   0  0  0  0  0  0  0  0  0  0  0  0
   44.0135   16.5876   16.0407 C   0  0  0  0  0  0  0  0  0  0  0  0
   43.8513   17.5483   15.2588 O   0  0  0  0  0  0  0  0  0  0  0  0
   44.7423   16.6872   17.0482 O   0  0  0  0  0  0  0  0  0  0  0  0
   40.6068   16.6785   14.7853 H   0  0  0  0  0  0  0  0  0  0  0  0
   40.0872   15.2881   13.8585 H   0  0  0  0  0  0  0  0  0  0  0  0
   44.3952   11.1362   16.9778 H   0  0  0  0  0  0  0  0  0  0  0  0
   43.9124    8.8280   17.7426 H   0  0  0  0  0  0  0  0  0  0  0  0
   41.6397    7.9480   17.6561 H   0  0  0  0  0  0  0  0  0  0  0  0
   38.6829    9.8680   16.5585 H   0  0  0  0  0  0  0  0  0  0  0  0
   39.7510    7.4159   17.7186 H   0  0  0  0  0  0  0  0  0  0  0  0
   37.5424    6.5207   17.3853 H   0  0  0  0  0  0  0  0  0  0  0  0
   37.3780    8.1320   18.0384 H   0  0  0  0  0  0  0  0  0  0  0  0
   35.8075    7.7286   16.1135 H   0  0  0  0  0  0  0  0  0  0  0  0
   36.9074    9.0423   15.7545 H   0  0  0  0  0  0  0  0  0  0  0  0
   38.9112    7.0188   13.5204 H   0  0  0  0  0  0  0  0  0  0  0  0
   38.7567    8.6203   14.2111 H   0  0  0  0  0  0  0  0  0  0  0  0
   40.6276    7.3811   15.3159 H   0  0  0  0  0  0  0  0  0  0  0  0
   39.5596    6.0572   15.6983 H   0  0  0  0  0  0  0  0  0  0  0  0
   40.2250   11.7232   16.1122 H   0  0  0  0  0  0  0  0  0  0  0  0
  1  2  2  0
  2  3  1  0
  2  4  1  0
  4  5  1  0
  4 28  1  0
  4 29  1  0
  5  6  1  0
  6  7  1  0
  6 24  2  0
  7  8  1  0
  7  9  2  0
  9 10  1  0
  9 23  1  0
 10 11  2  0
 10 22  1  0
 11 12  1  0
 11 30  1  0
 12 13  2  0
 12 31  1  0
 13 14  1  0
 13 32  1  0
 14 15  1  0
 14 22  2  0
 15 16  1  0
 15 33  1  0
 16 17  1  0
 16 21  1  0
 16 34  1  0
 17 18  1  0
 17 35  1  0
 17 36  1  0
 18 19  1  0
 18 37  1  0
 18 38  1  0
 19 20  1  0
 20 21  1  0
 20 39  1  0
 20 40  1  0
 21 41  1  0
 21 42  1  0
 22 43  1  0
 23 24  1  0
 24 25  1  0
 25 26  2  0
 25 27  1  0
M  CHG  2   3  -1  27  -1
M  END
>  <s_m_entry_id>  (1) 
533

>  <s_m_Source_Path>  (1) 
/projects/mai/users/kmzp800_harry/pmx_colab/docking_jobs/ptp1b/glide-dock_SP_ptp1b_mcs_2

>  <s_m_Source_File>  (1) 
glide-dock_SP_ptp1b_mcs_2_pv.maegz

>  <i_m_Source_File_Index>  (1) 
18

>  <r_i_docking_score>  (1) 
-6.4742734116021

>  <r_i_glide_gscore>  (1) 
-6.4742734116021

>  <r_i_glide_emodel>  (1) 
-79.4248154649843

>  <index_string>  (1) 
16:0:0

$$$$
