10:0:0
     RDKit          3D

 31 32  0  0  1  0  0  0  0  0999 V2000
   41.3839   17.4863   11.6318 O   0  0  0  0  0  0  0  0  0  0  0  0
   40.5364   17.4057   12.5504 C   0  0  0  0  0  0  0  0  0  0  0  0
   39.3833   17.8863   12.4944 O   0  0  0  0  0  0  0  0  0  0  0  0
   40.9273   16.6773   13.8353 C   0  0  0  0  0  0  0  0  0  0  0  0
   42.1002   15.9070   13.6208 O   0  0  0  0  0  0  0  0  0  0  0  0
   42.3759   15.0287   14.6062 C   0  0  0  0  0  0  0  0  0  0  0  0
   41.8846   13.6999   14.6505 C   0  0  0  0  0  0  0  0  0  0  0  0
   40.7181   13.0864   13.2940 Br  0  0  0  0  0  0  0  0  0  0  0  0
   42.3307   12.9378   15.7009 C   0  0  0  0  0  0  0  0  0  0  0  0
   43.3838   13.8969   16.7084 S   0  0  0  0  0  0  0  0  0  0  0  0
   43.1577   15.3079   15.6940 C   0  0  0  0  0  0  0  0  0  0  0  0
   43.7922   16.5586   16.1200 C   0  0  0  0  0  0  0  0  0  0  0  0
   43.9176   17.4864   15.2939 O   0  0  0  0  0  0  0  0  0  0  0  0
   44.1838   16.6863   17.2991 O   0  0  0  0  0  0  0  0  0  0  0  0
   42.0631   11.5506   16.0764 C   0  0  0  0  0  0  0  0  0  0  0  0
   43.0938   10.7381   16.5974 C   0  0  0  0  0  0  0  0  0  0  0  0
   42.8347    9.4092   16.9781 C   0  0  0  0  0  0  0  0  0  0  0  0
   41.5453    8.8672   16.8263 C   0  0  0  0  0  0  0  0  0  0  0  0
   40.4977    9.6604   16.2987 C   0  0  0  0  0  0  0  0  0  0  0  0
   40.7727   10.9948   15.9388 C   0  0  0  0  0  0  0  0  0  0  0  0
   39.2053    9.2163   16.1160 O   0  0  0  0  0  0  0  0  0  0  0  0
   38.9250    7.8515   16.3911 C   0  0  0  0  0  0  0  0  0  0  0  0
   41.1000   17.4111   14.6242 H   0  0  0  0  0  0  0  0  0  0  0  0
   40.0966   16.0439   14.1508 H   0  0  0  0  0  0  0  0  0  0  0  0
   44.0943   11.1309   16.7102 H   0  0  0  0  0  0  0  0  0  0  0  0
   43.6301    8.7994   17.3804 H   0  0  0  0  0  0  0  0  0  0  0  0
   41.3843    7.8425   17.1244 H   0  0  0  0  0  0  0  0  0  0  0  0
   39.9657   11.5997   15.5559 H   0  0  0  0  0  0  0  0  0  0  0  0
   37.8808    7.6445   16.1571 H   0  0  0  0  0  0  0  0  0  0  0  0
   39.5380    7.1870   15.7802 H   0  0  0  0  0  0  0  0  0  0  0  0
   39.0796    7.6178   17.4455 H   0  0  0  0  0  0  0  0  0  0  0  0
  1  2  2  0
  2  3  1  0
  2  4  1  0
  4  5  1  0
  4 23  1  0
  4 24  1  0
  5  6  1  0
  6 11  2  0
  6  7  1  0
  7  8  1  0
  7  9  2  0
  9 10  1  0
  9 15  1  0
 10 11  1  0
 11 12  1  0
 12 13  2  0
 12 14  1  0
 15 20  1  0
 15 16  2  0
 16 17  1  0
 16 25  1  0
 17 18  2  0
 17 26  1  0
 18 19  1  0
 18 27  1  0
 19 20  2  0
 19 21  1  0
 20 28  1  0
 21 22  1  0
 22 29  1  0
 22 30  1  0
 22 31  1  0
M  CHG  2   3  -1  14  -1
M  END
>  <s_m_entry_id>  (1) 
463

>  <i_f3d_flags>  (1) 
0

>  <r_epik_Ionization_Penalty>  (1) 
  0.0001

>  <r_epik_State_Penalty>  (1) 
  0.0000

>  <i_epik_Tot_Q>  (1) 
-2

>  <s_m_job_name>  (1) 
glide-dock_SP_ptp1b_no_cons

>  <r_lp_tautomer_probability>  (1) 
1

>  <r_i_docking_score>  (1) 
-7.64143714226314

>  <r_i_glide_gscore>  (1) 
-7.64143714226314

>  <r_i_glide_emodel>  (1) 
-91.1219219919796

>  <index_string>  (1) 
10:0:0

$$$$
