14:0:0
     RDKit          3D

 42 44  0  0  1  0  0  0  0  0999 V2000
   41.5859   17.4863   11.9348 O   0  0  0  0  0  0  0  0  0  0  0  0
   40.7808   17.4173   12.8940 C   0  0  0  0  0  0  0  0  0  0  0  0
   39.6206   17.8863   12.8848 O   0  0  0  0  0  0  0  0  0  0  0  0
   41.2333   16.7303   14.1855 C   0  0  0  0  0  0  0  0  0  0  0  0
   42.4228   15.9769   13.9792 O   0  0  0  0  0  0  0  0  0  0  0  0
   42.6155   14.9998   14.8930 C   0  0  0  0  0  0  0  0  0  0  0  0
   42.0578   13.6997   14.7981 C   0  0  0  0  0  0  0  0  0  0  0  0
   40.9838   13.2789   13.2940 Br  0  0  0  0  0  0  0  0  0  0  0  0
   42.3864   12.8345   15.8170 C   0  0  0  0  0  0  0  0  0  0  0  0
   43.3838   13.6755   16.9803 S   0  0  0  0  0  0  0  0  0  0  0  0
   43.3676   15.1392   16.0272 C   0  0  0  0  0  0  0  0  0  0  0  0
   44.1190   16.2863   16.5312 C   0  0  0  0  0  0  0  0  0  0  0  0
   44.2508   16.4579   17.7617 O   0  0  0  0  0  0  0  0  0  0  0  0
   44.5838   17.0863   15.6940 O   0  0  0  0  0  0  0  0  0  0  0  0
   42.0631   11.4231   16.0584 C   0  0  0  0  0  0  0  0  0  0  0  0
   42.9377   10.6016   16.8087 C   0  0  0  0  0  0  0  0  0  0  0  0
   42.6373    9.2471   17.0408 C   0  0  0  0  0  0  0  0  0  0  0  0
   41.4743    8.6784   16.4940 C   0  0  0  0  0  0  0  0  0  0  0  0
   40.5966    9.4707   15.7208 C   0  0  0  0  0  0  0  0  0  0  0  0
   40.8858   10.8375   15.5418 C   0  0  0  0  0  0  0  0  0  0  0  0
   39.4481    8.9512   15.1066 N   0  0  0  0  0  0  0  0  0  0  0  0
   39.4742    7.5487   14.7060 C   0  0  0  0  0  0  0  0  0  0  0  0
   38.2704    7.0585   13.9174 C   0  0  0  0  0  0  0  0  0  0  0  0
   38.3850    5.8602   13.1808 C   0  0  0  0  0  0  0  0  0  0  0  0
   37.2729    5.3353   12.4940 C   0  0  0  0  0  0  0  0  0  0  0  0
   36.0367    6.0076   12.5387 C   0  0  0  0  0  0  0  0  0  0  0  0
   35.9206    7.2133   13.2574 C   0  0  0  0  0  0  0  0  0  0  0  0
   37.0314    7.7380   13.9460 C   0  0  0  0  0  0  0  0  0  0  0  0
   41.4122   17.4864   14.9506 H   0  0  0  0  0  0  0  0  0  0  0  0
   40.4175   16.0976   14.5412 H   0  0  0  0  0  0  0  0  0  0  0  0
   43.8555   10.9981   17.2168 H   0  0  0  0  0  0  0  0  0  0  0  0
   43.3109    8.6370   17.6241 H   0  0  0  0  0  0  0  0  0  0  0  0
   41.2791    7.6320   16.6729 H   0  0  0  0  0  0  0  0  0  0  0  0
   40.1838   11.4352   14.9853 H   0  0  0  0  0  0  0  0  0  0  0  0
   38.9392    9.5786   14.4940 H   0  0  0  0  0  0  0  0  0  0  0  0
   40.3761    7.3635   14.1199 H   0  0  0  0  0  0  0  0  0  0  0  0
   39.5379    6.9225   15.5959 H   0  0  0  0  0  0  0  0  0  0  0  0
   39.3257    5.3280   13.1568 H   0  0  0  0  0  0  0  0  0  0  0  0
   37.3669    4.4093   11.9456 H   0  0  0  0  0  0  0  0  0  0  0  0
   35.1805    5.5953   12.0268 H   0  0  0  0  0  0  0  0  0  0  0  0
   34.9773    7.7343   13.2940 H   0  0  0  0  0  0  0  0  0  0  0  0
   36.9159    8.6520   14.5092 H   0  0  0  0  0  0  0  0  0  0  0  0
  1  2  2  0
  2  3  1  0
  2  4  1  0
  4  5  1  0
  4 29  1  0
  4 30  1  0
  5  6  1  0
  6 11  2  0
  6  7  1  0
  7  8  1  0
  7  9  2  0
  9 10  1  0
  9 15  1  0
 10 11  1  0
 11 12  1  0
 12 13  2  0
 12 14  1  0
 15 20  1  0
 15 16  2  0
 16 17  1  0
 16 31  1  0
 17 18  2  0
 17 32  1  0
 18 19  1  0
 18 33  1  0
 19 20  2  0
 19 21  1  0
 20 34  1  0
 21 22  1  0
 21 35  1  0
 22 23  1  0
 22 36  1  0
 22 37  1  0
 23 28  1  0
 23 24  2  0
 24 25  1  0
 24 38  1  0
 25 26  2  0
 25 39  1  0
 26 27  1  0
 26 40  1  0
 27 28  2  0
 27 41  1  0
 28 42  1  0
M  CHG  2   3  -1  14  -1
M  END
>  <s_m_entry_id>  (1) 
467

>  <i_f3d_flags>  (1) 
0

>  <r_epik_Ionization_Penalty>  (1) 
  0.0002

>  <r_epik_State_Penalty>  (1) 
  0.0000

>  <i_epik_Tot_Q>  (1) 
-2

>  <s_m_job_name>  (1) 
glide-dock_SP_ptp1b_no_cons

>  <r_lp_tautomer_probability>  (1) 
1

>  <r_i_docking_score>  (1) 
-8.35659290826876

>  <r_i_glide_gscore>  (1) 
-8.35659290826876

>  <r_i_glide_emodel>  (1) 
-112.899793175654

>  <index_string>  (1) 
14:0:0

$$$$
