18:0:0
     RDKit          3D

 53 56  0  0  1  0  0  0  0  0999 V2000
   32.8690   34.7090   22.1790 N   0  0  0  0  0  0  0  0  0  0  0  0
   33.1100   34.5440   20.8370 C   0  0  0  0  0  0  0  0  0  0  0  0
   33.0570   33.3950   20.3180 O   0  0  0  0  0  0  0  0  0  0  0  0
   33.4180   35.6460   20.0260 C   0  0  0  0  0  0  0  0  0  0  0  0
   33.4520   36.9230   20.5980 C   0  0  0  0  0  0  0  0  0  0  0  0
   33.1990   37.0800   21.9540 C   0  0  0  0  0  0  0  0  0  0  0  0
   33.2280   38.3350   22.5530 C   0  0  0  0  0  0  0  0  0  0  0  0
   32.9750   38.4540   23.8810 N   0  0  0  0  0  0  0  0  0  0  0  0
   32.6890   37.3650   24.6450 C   0  0  0  0  0  0  0  0  0  0  0  0
   32.4220   37.4920   26.0450 N   0  0  0  0  0  0  0  0  0  0  0  0
   32.6560   36.1310   24.0740 N   0  0  0  0  0  0  0  0  0  0  0  0
   32.9050   35.9570   22.7460 C   0  0  0  0  0  0  0  0  0  0  0  0
   32.4130   38.7250   26.8330 C   0  0  0  0  0  0  0  0  0  0  0  0
   31.3880   38.6990   27.9740 C   0  0  0  0  0  0  0  0  0  0  0  0
   32.0400   38.2860   29.2940 C   0  0  0  0  0  0  0  0  0  0  0  0
   33.1480   39.1080   29.5590 O   0  0  0  0  0  0  0  0  0  0  0  0
   34.1520   38.7020   28.6670 C   0  0  0  0  0  0  0  0  0  0  0  0
   33.8190   39.1760   27.2520 C   0  0  0  0  0  0  0  0  0  0  0  0
   32.5670   33.5380   23.0070 C   0  0  0  0  0  0  0  0  0  0  0  0
   31.0890   33.4990   23.3770 C   0  0  0  0  0  0  0  0  0  0  0  0
   30.3090   32.6690   22.3760 C   0  0  0  0  0  0  0  0  0  0  0  0
   29.5030   33.5060   21.6070 O   0  0  0  0  0  0  0  0  0  0  0  0
   33.6440   35.4540   18.6540 O   0  0  0  0  0  0  0  0  0  0  0  0
   34.8900   35.5600   18.0210 C   0  0  0  0  0  0  0  0  0  0  0  0
   36.0180   35.8220   18.8080 C   0  0  0  0  0  0  0  0  0  0  0  0
   37.2790   35.9460   18.2190 C   0  0  0  0  0  0  0  0  0  0  0  0
   37.4200   35.8170   16.8360 C   0  0  0  0  0  0  0  0  0  0  0  0
   38.6420   35.9360   16.2650 F   0  0  0  0  0  0  0  0  0  0  0  0
   36.2970   35.5820   16.0380 C   0  0  0  0  0  0  0  0  0  0  0  0
   35.0330   35.4550   16.6230 C   0  0  0  0  0  0  0  0  0  0  0  0
   33.9520   35.2890   15.8220 F   0  0  0  0  0  0  0  0  0  0  0  0
   33.6787   37.8004   19.9744 H   0  0  0  0  0  0  0  0  0  0  0  0
   33.4552   39.2281   21.9523 H   0  0  0  0  0  0  0  0  0  0  0  0
   32.2135   36.6208   26.5534 H   0  0  0  0  0  0  0  0  0  0  0  0
   32.0562   39.5196   26.1612 H   0  0  0  0  0  0  0  0  0  0  0  0
   30.9522   39.7026   28.0877 H   0  0  0  0  0  0  0  0  0  0  0  0
   30.6088   37.9635   27.7254 H   0  0  0  0  0  0  0  0  0  0  0  0
   31.3083   38.3865   30.1091 H   0  0  0  0  0  0  0  0  0  0  0  0
   32.3745   37.2407   29.2207 H   0  0  0  0  0  0  0  0  0  0  0  0
   35.1135   39.1355   28.9793 H   0  0  0  0  0  0  0  0  0  0  0  0
   34.2175   37.6040   28.6734 H   0  0  0  0  0  0  0  0  0  0  0  0
   34.5547   38.7560   26.5503 H   0  0  0  0  0  0  0  0  0  0  0  0
   33.8518   40.2754   27.2358 H   0  0  0  0  0  0  0  0  0  0  0  0
   32.8222   32.6260   22.4475 H   0  0  0  0  0  0  0  0  0  0  0  0
   33.1590   33.6000   23.9321 H   0  0  0  0  0  0  0  0  0  0  0  0
   30.9786   33.0559   24.3778 H   0  0  0  0  0  0  0  0  0  0  0  0
   30.6947   34.5259   23.3694 H   0  0  0  0  0  0  0  0  0  0  0  0
   31.0097   32.1310   21.7206 H   0  0  0  0  0  0  0  0  0  0  0  0
   29.6789   31.9442   22.9123 H   0  0  0  0  0  0  0  0  0  0  0  0
   28.9548   34.0753   22.2032 H   0  0  0  0  0  0  0  0  0  0  0  0
   35.9108   35.9310   19.8973 H   0  0  0  0  0  0  0  0  0  0  0  0
   38.1611   36.1454   18.8453 H   0  0  0  0  0  0  0  0  0  0  0  0
   36.4075   35.4967   14.9469 H   0  0  0  0  0  0  0  0  0  0  0  0
  1 12  1  0
  1 19  1  0
  1  2  1  0
  2  3  2  0
  2  4  1  0
  4  5  2  0
  4 23  1  0
  5  6  1  0
  6  7  1  0
  6 12  2  0
  7  8  2  0
  8  9  1  0
  9 10  1  0
  9 11  2  0
 10 13  1  0
 11 12  1  0
 13 18  1  0
 13 14  1  0
 14 15  1  0
 15 16  1  0
 16 17  1  0
 17 18  1  0
 19 20  1  0
 20 21  1  0
 21 22  1  0
 23 24  1  0
 24 25  2  0
 24 30  1  0
 25 26  1  0
 26 27  2  0
 27 28  1  0
 27 29  1  0
 29 30  2  0
 30 31  1  0
  5 32  1  0
  7 33  1  0
 10 34  1  0
 13 35  1  0
 14 36  1  0
 14 37  1  0
 15 38  1  0
 15 39  1  0
 17 40  1  0
 17 41  1  0
 18 42  1  0
 18 43  1  0
 19 44  1  0
 19 45  1  0
 20 46  1  0
 20 47  1  0
 21 48  1  0
 21 49  1  0
 22 50  1  0
 25 51  1  0
 26 52  1  0
 29 53  1  0
M  END
>  <s_m_entry_id>  (1) 
68

>  <MODEL>  (1) 
1

>  <REMARK>  (1) 
 VINA RESULT:   -10.070      0.000      0.000
 INTER + INTRA:         -11.814
 INTER:                 -11.184
 INTRA:                  -0.630
 UNBOUND:                 2.083
  Name = /scratch/kmzp800/tmpmghywfz0/tmpulmwi4yj.pdb
  7 active torsions:
  status: ('A' for Active; 'I' for Inactive)
    1  A    between atoms: O1_1  and  C1_2
    2  A    between atoms: C1_2  and  C2_3
    3  A    between atoms: C2_3  and  C3_4
    4  A    between atoms: C3_4  and  N1_5
    5  A    between atoms: C5_8  and  O3_9
    6  A    between atoms: O3_9  and  C6_10
    7  A    between atoms: N3_23  and  C16_24
                            x       y       z     vdW  Elec       q    Type
                         _______ _______ _______ _____ _____    ______ ____

>  <TORSDO>  (1) 
F 7

>  <grid_id>  (1) 
p38-prepared

>  <grid_path>  (1) 
/projects/mai/users/kmzp800_harry/pmx_colab/docking_jobs/p38/vina_docking/input_files/p38_vina.pdbqt

>  <grid_filename>  (1) 
p38_vina.pdbqt

>  <docking_score>  (1) 
-10.07

>  <compound_name>  (1) 
lig_p38a_2n

>  <index_string>  (1) 
18:0:0

$$$$
