18:0:0
     RDKit          3D

 37 39  0  0  1  0  0  0  0  0999 V2000
  -14.3950  -14.9220  -27.6050 C   0  0  0  0  0  0  0  0  0  0  0  0
  -14.9070  -15.7190  -26.5820 C   0  0  0  0  0  0  0  0  0  0  0  0
  -14.6390  -13.5530  -27.5790 C   0  0  0  0  0  0  0  0  0  0  0  0
  -15.6870  -15.1660  -25.5580 C   0  0  0  0  0  0  0  0  0  0  0  0
  -14.6140  -17.0780  -26.6030 N   0  0  0  0  0  0  0  0  0  0  0  0
  -15.4010  -13.0080  -26.5480 C   0  0  0  0  0  0  0  0  0  0  0  0
  -15.9380  -13.7980  -25.5350 C   0  0  0  0  0  0  0  0  0  0  0  0
  -15.6330  -11.6960  -26.5410 F   0  0  0  0  0  0  0  0  0  0  0  0
  -16.2490  -16.0940  -24.5010 C   0  0  0  0  0  0  0  0  0  0  0  0
  -15.8470  -17.3770  -24.6950 N   0  0  0  0  0  0  0  0  0  0  0  0
  -17.0010  -15.7770  -23.5790 O   0  0  0  0  0  0  0  0  0  0  0  0
  -15.0550  -17.8910  -25.7060 C   0  0  0  0  0  0  0  0  0  0  0  0
  -14.7660  -19.3300  -25.7670 C   0  0  0  0  0  0  0  0  0  0  0  0
  -14.2180  -20.0210  -24.6800 C   0  0  0  0  0  0  0  0  0  0  0  0
  -13.9150  -21.3700  -24.8040 C   0  0  0  0  0  0  0  0  0  0  0  0
  -14.1710  -22.0420  -26.0050 C   0  0  0  0  0  0  0  0  0  0  0  0
  -14.7440  -21.3620  -27.0730 C   0  0  0  0  0  0  0  0  0  0  0  0
  -15.0410  -20.0200  -26.9540 C   0  0  0  0  0  0  0  0  0  0  0  0
  -13.7230  -23.4870  -26.1780 C   0  0  0  0  0  0  0  0  0  0  0  0
  -12.8150  -23.6530  -27.3900 C   0  0  0  0  0  0  0  0  0  0  0  0
  -14.9740  -24.3580  -26.1730 C   0  0  0  0  0  0  0  0  0  0  0  0
  -12.9130  -23.9850  -25.1460 O   0  0  0  0  0  0  0  0  0  0  0  0
  -13.8071  -15.3691  -28.4202 H   0  0  0  0  0  0  0  0  0  0  0  0
  -14.2324  -12.9039  -28.3685 H   0  0  0  0  0  0  0  0  0  0  0  0
  -16.5465  -13.3508  -24.7352 H   0  0  0  0  0  0  0  0  0  0  0  0
  -16.1759  -18.0581  -23.9959 H   0  0  0  0  0  0  0  0  0  0  0  0
  -14.0283  -19.4972  -23.7315 H   0  0  0  0  0  0  0  0  0  0  0  0
  -13.4723  -21.9127  -23.9558 H   0  0  0  0  0  0  0  0  0  0  0  0
  -14.9604  -21.8929  -28.0118 H   0  0  0  0  0  0  0  0  0  0  0  0
  -15.4985  -19.4866  -27.8003 H   0  0  0  0  0  0  0  0  0  0  0  0
  -11.7849  -23.8413  -27.0533 H   0  0  0  0  0  0  0  0  0  0  0  0
  -13.1638  -24.5023  -27.9959 H   0  0  0  0  0  0  0  0  0  0  0  0
  -12.8407  -22.7353  -27.9959 H   0  0  0  0  0  0  0  0  0  0  0  0
  -15.2721  -24.5656  -25.1347 H   0  0  0  0  0  0  0  0  0  0  0  0
  -15.7895  -23.8314  -26.6903 H   0  0  0  0  0  0  0  0  0  0  0  0
  -14.7631  -25.3056  -26.6903 H   0  0  0  0  0  0  0  0  0  0  0  0
  -13.3073  -23.7426  -24.2709 H   0  0  0  0  0  0  0  0  0  0  0  0
  1  3  2  0
  1  2  1  0
  2  4  2  0
  2  5  1  0
  3  6  1  0
  4  7  1  0
  4  9  1  0
  5 12  2  0
  6  8  1  0
  6  7  2  0
  9 11  2  0
  9 10  1  0
 10 12  1  0
 12 13  1  0
 13 14  2  0
 13 18  1  0
 14 15  1  0
 15 16  2  0
 16 17  1  0
 16 19  1  0
 17 18  2  0
 19 21  1  0
 19 22  1  0
 19 20  1  0
  1 23  1  0
  3 24  1  0
  7 25  1  0
 10 26  1  0
 14 27  1  0
 15 28  1  0
 17 29  1  0
 18 30  1  0
 20 31  1  0
 20 32  1  0
 20 33  1  0
 21 34  1  0
 21 35  1  0
 21 36  1  0
 22 37  1  0
M  END
>  <s_m_entry_id>  (1) 
2476

>  <MODEL>  (1) 
1

>  <REMARK>  (1) 
 VINA RESULT:   -11.141      0.000      0.000
 INTER + INTRA:         -13.239
 INTER:                 -12.798
 INTRA:                  -0.441
 UNBOUND:                -0.470
  Name = 5d
  5 active torsions:
  status: ('A' for Active; 'I' for Inactive)
    1  A    between atoms: C_12  and  C_13
    2  A    between atoms: C_16  and  C_19
    3  A    between atoms: C_19  and  O_20
    4  A    between atoms: C_19  and  C_21
    5  A    between atoms: C_19  and  C_22
                            x       y       z     vdW  Elec       q    Type
                         _______ _______ _______ _____ _____    ______ ____

>  <TORSDO>  (1) 
F 3

>  <s_m_Source_Path>  (1) 
/projects/mai/users/kmzp800_harry/pmx_colab/docking_jobs/tnks2/vina_prep/output_mcs

>  <s_m_Source_File>  (1) 
tnks_mcs_vina__all_poses.sdf

>  <i_m_Source_File_Index>  (1) 
94

>  <index_string>  (1) 
18:0:0

$$$$
