17:0:0
     RDKit          3D

 49 52  0  0  1  0  0  0  0  0999 V2000
   34.5522   35.0551   21.1680 C   0  0  0  0  0  0  0  0  0  0  0  0
   34.0677   38.9810   23.8171 C   0  0  0  0  0  0  0  0  0  0  0  0
   34.7350   37.8854   21.4632 C   0  0  0  0  0  0  0  0  0  0  0  0
   35.0667   37.2475   20.1953 C   0  0  0  0  0  0  0  0  0  0  0  0
   34.3732   37.0735   22.5578 C   0  0  0  0  0  0  0  0  0  0  0  0
   34.7316   39.2792   21.6602 C   0  0  0  0  0  0  0  0  0  0  0  0
   34.9894   35.9067   20.0646 C   0  0  0  0  0  0  0  0  0  0  0  0
   34.4033   39.8305   22.8480 N   0  0  0  0  0  0  0  0  0  0  0  0
   34.3884   33.8482   20.9998 O   0  0  0  0  0  0  0  0  0  0  0  0
   34.3632   35.6504   22.3803 N   0  0  0  0  0  0  0  0  0  0  0  0
   34.0393   37.6533   23.7286 N   0  0  0  0  0  0  0  0  0  0  0  0
   33.7282   39.5500   25.0254 N   0  0  0  0  0  0  0  0  0  0  0  0
   35.3582   37.8827   19.3715 H   0  0  0  0  0  0  0  0  0  0  0  0
   34.9931   39.9492   20.8568 H   0  0  0  0  0  0  0  0  0  0  0  0
   33.7679   40.5608   25.0889 H   0  0  0  0  0  0  0  0  0  0  0  0
   34.1708   34.7863   23.5629 C   0  0  0  0  0  0  0  0  0  0  0  0
   34.8525   33.9343   23.5158 H   0  0  0  0  0  0  0  0  0  0  0  0
   34.4585   35.3019   24.4794 H   0  0  0  0  0  0  0  0  0  0  0  0
   32.7373   34.2711   23.7044 C   0  0  0  0  0  0  0  0  0  0  0  0
   32.6403   33.6393   24.5869 H   0  0  0  0  0  0  0  0  0  0  0  0
   32.0328   35.0961   23.8103 H   0  0  0  0  0  0  0  0  0  0  0  0
   32.4310   33.6787   22.8428 H   0  0  0  0  0  0  0  0  0  0  0  0
   33.5830   38.5141   28.6859 C   0  0  0  0  0  0  0  0  0  0  0  0
   34.1221   39.2165   27.4316 C   0  0  0  0  0  0  0  0  0  0  0  0
   33.2779   38.8322   26.2117 C   0  0  0  0  0  0  0  0  0  0  0  0
   31.7970   39.1145   26.5041 C   0  0  0  0  0  0  0  0  0  0  0  0
   31.3765   38.4307   27.8150 C   0  0  0  0  0  0  0  0  0  0  0  0
   32.2201   38.8747   28.8770 O   0  0  0  0  0  0  0  0  0  0  0  0
   33.6833   37.4315   28.6053 H   0  0  0  0  0  0  0  0  0  0  0  0
   34.1555   38.8229   29.5603 H   0  0  0  0  0  0  0  0  0  0  0  0
   35.1653   38.9439   27.2708 H   0  0  0  0  0  0  0  0  0  0  0  0
   34.0967   40.2974   27.5812 H   0  0  0  0  0  0  0  0  0  0  0  0
   33.3888   37.7575   26.0687 H   0  0  0  0  0  0  0  0  0  0  0  0
   31.6312   40.1887   26.5868 H   0  0  0  0  0  0  0  0  0  0  0  0
   31.1719   38.7621   25.6837 H   0  0  0  0  0  0  0  0  0  0  0  0
   31.4308   37.3454   27.7213 H   0  0  0  0  0  0  0  0  0  0  0  0
   30.3418   38.6733   28.0559 H   0  0  0  0  0  0  0  0  0  0  0  0
   35.2374   35.2509   18.8887 O   0  0  0  0  0  0  0  0  0  0  0  0
   37.8404   36.6530   15.9474 C   0  0  0  0  0  0  0  0  0  0  0  0
   38.3761   36.3493   17.2202 C   0  0  0  0  0  0  0  0  0  0  0  0
   37.5026   35.9905   18.2670 C   0  0  0  0  0  0  0  0  0  0  0  0
   36.1452   35.7161   17.9759 C   0  0  0  0  0  0  0  0  0  0  0  0
   35.7036   35.7979   16.6516 C   0  0  0  0  0  0  0  0  0  0  0  0
   36.5100   36.3489   15.6576 C   0  0  0  0  0  0  0  0  0  0  0  0
   38.5553   37.2944   15.0076 F   0  0  0  0  0  0  0  0  0  0  0  0
   39.4085   36.5796   17.4394 H   0  0  0  0  0  0  0  0  0  0  0  0
   37.9659   35.9054   19.5350 F   0  0  0  0  0  0  0  0  0  0  0  0
   34.6771   35.5501   16.4225 H   0  0  0  0  0  0  0  0  0  0  0  0
   36.0981   36.5753   14.6892 H   0  0  0  0  0  0  0  0  0  0  0  0
  1  7  1  0
  1  9  2  0
  1 10  1  0
  2  8  1  0
  2 11  2  0
  2 12  1  0
  3  4  1  0
  3  5  2  0
  3  6  1  0
  4  7  2  0
  4 13  1  0
  5 10  1  0
  5 11  1  0
  6  8  2  0
  6 14  1  0
  7 38  1  0
 10 16  1  0
 12 15  1  0
 12 25  1  0
 16 17  1  0
 16 18  1  0
 16 19  1  0
 19 20  1  0
 19 21  1  0
 19 22  1  0
 23 24  1  0
 23 28  1  0
 23 29  1  0
 23 30  1  0
 24 25  1  0
 24 31  1  0
 24 32  1  0
 25 26  1  0
 25 33  1  0
 26 27  1  0
 26 34  1  0
 26 35  1  0
 27 28  1  0
 27 36  1  0
 27 37  1  0
 38 42  1  0
 39 40  2  0
 39 44  1  0
 39 45  1  0
 40 41  1  0
 40 46  1  0
 41 42  2  0
 41 47  1  0
 42 43  1  0
 43 44  2  0
 43 48  1  0
 44 49  1  0
M  END
>  <s_m_entry_id>  (1) 
835

>  <s_m_Source_Path>  (1) 
/projects/mai/users/kmzp800_harry/pmx_colab/docking_jobs/p38/glide-dock_SP_p38_mcs_docking_2

>  <s_m_Source_File>  (1) 
glide-dock_SP_p38_mcs_docking_2_pv.maegz

>  <i_m_Source_File_Index>  (1) 
19

>  <s_pdb_PDB_TITLE>  (1) 
MX MODEL

>  <r_i_docking_score>  (1) 
-7.2217863364715

>  <r_i_glide_gscore>  (1) 
-7.2217863364715

>  <r_i_glide_emodel>  (1) 
-36.6179407138884

>  <index_string>  (1) 
17:0:0

$$$$
