39:0:0
     RDKit          3D

 51 54  0  0  1  0  0  0  0  0999 V2000
    5.4640   -0.5650   16.2620 C   0  0  0  0  0  0  0  0  0  0  0  0
    4.1610   -0.9310   16.1680 N   0  0  0  0  0  0  0  0  0  0  0  0
    3.7050   -0.2130   15.1270 C   0  0  0  0  0  0  0  0  0  0  0  0
    2.4140   -0.2170   14.6100 C   0  0  0  0  0  0  0  0  0  0  0  0
    1.3930   -1.0340   15.2010 N   0  0  0  0  0  0  0  0  0  0  0  0
    2.1540    0.6000   13.5490 N   0  0  0  0  0  0  0  0  0  0  0  0
    3.1150    1.3940   12.9780 C   0  0  0  0  0  0  0  0  0  0  0  0
    4.4130    1.3810   13.5250 C   0  0  0  0  0  0  0  0  0  0  0  0
    4.6440    0.5650   14.5810 N   0  0  0  0  0  0  0  0  0  0  0  0
    5.7720    0.3680   15.2750 C   0  0  0  0  0  0  0  0  0  0  0  0
    2.7490    2.2820   11.8460 C   0  0  0  0  0  0  0  0  0  0  0  0
    1.4230    2.7420   11.7840 C   0  0  0  0  0  0  0  0  0  0  0  0
    0.9910    3.5880   10.7570 C   0  0  0  0  0  0  0  0  0  0  0  0
    1.8990    3.9790    9.7670 C   0  0  0  0  0  0  0  0  0  0  0  0
    3.2180    3.5260    9.8030 C   0  0  0  0  0  0  0  0  0  0  0  0
    3.6530    2.6830   10.8300 C   0  0  0  0  0  0  0  0  0  0  0  0
    5.0630    2.2000   10.7640 C   0  0  0  0  0  0  0  0  0  0  0  0
   -0.4030    4.0650   10.7220 C   0  0  0  0  0  0  0  0  0  0  0  0
   -0.9280    4.5720   11.7480 O   0  0  0  0  0  0  0  0  0  0  0  0
   -1.1730    3.9540    9.5280 N   0  0  0  0  0  0  0  0  0  0  0  0
    0.0650   -1.2400   14.7000 C   0  0  0  0  0  0  0  0  0  0  0  0
   -0.5310   -2.4930   14.8600 C   0  0  0  0  0  0  0  0  0  0  0  0
   -1.8170   -2.7310   14.3720 C   0  0  0  0  0  0  0  0  0  0  0  0
   -2.5260   -1.7160   13.7080 C   0  0  0  0  0  0  0  0  0  0  0  0
   -1.9320   -0.4570   13.5340 C   0  0  0  0  0  0  0  0  0  0  0  0
   -0.6390   -0.2280   14.0310 C   0  0  0  0  0  0  0  0  0  0  0  0
   -3.8160   -1.9370   13.2130 O   0  0  0  0  0  0  0  0  0  0  0  0
   -4.2940   -3.2290   12.8610 C   0  0  0  0  0  0  0  0  0  0  0  0
   -2.6390    0.5480   12.8640 O   0  0  0  0  0  0  0  0  0  0  0  0
   -2.1110    1.2410   11.7410 C   0  0  0  0  0  0  0  0  0  0  0  0
    6.1740   -0.9493   17.0092 H   0  0  0  0  0  0  0  0  0  0  0  0
    1.6389   -1.5222   16.0740 H   0  0  0  0  0  0  0  0  0  0  0  0
    5.2119    2.0122   13.1086 H   0  0  0  0  0  0  0  0  0  0  0  0
    6.7467    0.8471   15.1005 H   0  0  0  0  0  0  0  0  0  0  0  0
    0.7087    2.4301   12.5601 H   0  0  0  0  0  0  0  0  0  0  0  0
    1.5714    4.6467    8.9565 H   0  0  0  0  0  0  0  0  0  0  0  0
    3.9221    3.8349    9.0163 H   0  0  0  0  0  0  0  0  0  0  0  0
    5.4529    2.0664   11.7839 H   0  0  0  0  0  0  0  0  0  0  0  0
    5.0968    1.2390   10.2297 H   0  0  0  0  0  0  0  0  0  0  0  0
    5.6789    2.9384   10.2297 H   0  0  0  0  0  0  0  0  0  0  0  0
   -2.1467    4.2893    9.5101 H   0  0  0  0  0  0  0  0  0  0  0  0
   -0.7558    3.5385    8.6829 H   0  0  0  0  0  0  0  0  0  0  0  0
    0.0163   -3.2971   15.3737 H   0  0  0  0  0  0  0  0  0  0  0  0
   -2.2785   -3.7202   14.5083 H   0  0  0  0  0  0  0  0  0  0  0  0
   -0.1718    0.7584   13.8939 H   0  0  0  0  0  0  0  0  0  0  0  0
   -4.5064   -3.8030   13.7750 H   0  0  0  0  0  0  0  0  0  0  0  0
   -5.2151   -3.1301   12.2678 H   0  0  0  0  0  0  0  0  0  0  0  0
   -3.5304   -3.7534   12.2678 H   0  0  0  0  0  0  0  0  0  0  0  0
   -1.4782    2.0716   12.0870 H   0  0  0  0  0  0  0  0  0  0  0  0
   -1.5087    0.5496   11.1334 H   0  0  0  0  0  0  0  0  0  0  0  0
   -2.9375    1.6382   11.1334 H   0  0  0  0  0  0  0  0  0  0  0  0
  1  2  1  0
  1 10  2  0
  2  3  2  0
  3  4  1  0
  3  9  1  0
  4  5  1  0
  4  6  2  0
  5 21  1  0
  6  7  1  0
  7  8  2  0
  7 11  1  0
  8  9  1  0
  9 10  1  0
 11 12  2  0
 11 16  1  0
 12 13  1  0
 13 14  2  0
 13 18  1  0
 14 15  1  0
 15 16  2  0
 16 17  1  0
 18 19  2  0
 18 20  1  0
 21 22  2  0
 21 26  1  0
 22 23  1  0
 23 24  2  0
 24 25  1  0
 24 27  1  0
 25 26  2  0
 25 29  1  0
 27 28  1  0
 29 30  1  0
  1 31  1  0
  5 32  1  0
  8 33  1  0
 10 34  1  0
 12 35  1  0
 14 36  1  0
 15 37  1  0
 17 38  1  0
 17 39  1  0
 17 40  1  0
 20 41  1  0
 20 42  1  0
 22 43  1  0
 23 44  1  0
 26 45  1  0
 28 46  1  0
 28 47  1  0
 28 48  1  0
 30 49  1  0
 30 50  1  0
 30 51  1  0
M  END
>  <s_m_entry_id>  (1) 
40

>  <MODEL>  (1) 
1

>  <REMARK>  (1) 
 VINA RESULT:    -9.601      0.000      0.000
 INTER + INTRA:         -12.435
 INTER:                 -12.407
 INTRA:                  -0.028
 UNBOUND:                -0.028
  Name = /scratch/kmzp800/tmpb7u4xstm/tmpvvldud8t.pdb
  8 active torsions:
  status: ('A' for Active; 'I' for Inactive)
    1  A    between atoms: N2_5  and  C4_6
    2  A    between atoms: C7_9  and  O1_10
    3  A    between atoms: O1_10  and  C8_11
    4  A    between atoms: C9_12  and  O2_13
    5  A    between atoms: O2_13  and  C10_14
    6  A    between atoms: C12_17  and  C13_18
    7  A    between atoms: C15_20  and  C16_21
    8  A    between atoms: C19_26  and  C20_27
                            x       y       z     vdW  Elec       q    Type
                         _______ _______ _______ _____ _____    ______ ____

>  <TORSDO>  (1) 
F 5

>  <grid_id>  (1) 
syk-prepared

>  <grid_path>  (1) 
syk_vina.pdbqt

>  <grid_filename>  (1) 
syk_vina.pdbqt

>  <docking_score>  (1) 
-9.601

>  <compound_name>  (1) 
CHEMBL3265011

>  <index_string>  (1) 
39:0:0

>  <s_m_Source_Path>  (1) 
/projects/mai/users/kmzp800_harry/pmx_colab/docking_jobs/syk/vina_prep/output

>  <s_m_Source_File>  (1) 
ptp1b_docked_conformers.sdf

>  <i_m_Source_File_Index>  (1) 
40

$$$$
