10:0:0
     RDKit          3D

 46 49  0  0  1  0  0  0  0  0999 V2000
   34.9507   37.4047   20.2090 C   0  0  0  0  0  0  0  0  0  0  0  0
   34.2308   37.1678   22.5485 C   0  0  0  0  0  0  0  0  0  0  0  0
   34.5955   38.0173   21.4882 C   0  0  0  0  0  0  0  0  0  0  0  0
   34.5769   39.4055   21.7453 C   0  0  0  0  0  0  0  0  0  0  0  0
   33.9362   39.0216   23.8992 C   0  0  0  0  0  0  0  0  0  0  0  0
   34.9313   36.0602   20.0612 C   0  0  0  0  0  0  0  0  0  0  0  0
   33.8592   34.9093   23.4973 C   0  0  0  0  0  0  0  0  0  0  0  0
   34.5460   33.9491   20.9977 O   0  0  0  0  0  0  0  0  0  0  0  0
   34.5513   35.1691   21.1567 C   0  0  0  0  0  0  0  0  0  0  0  0
   34.2590   39.9112   22.9610 N   0  0  0  0  0  0  0  0  0  0  0  0
   34.2289   35.7512   22.3452 N   0  0  0  0  0  0  0  0  0  0  0  0
   33.8961   37.7017   23.7349 N   0  0  0  0  0  0  0  0  0  0  0  0
   33.6560   39.4971   25.1718 N   0  0  0  0  0  0  0  0  0  0  0  0
   35.1997   38.0584   19.3860 H   0  0  0  0  0  0  0  0  0  0  0  0
   34.8279   40.1121   20.9724 H   0  0  0  0  0  0  0  0  0  0  0  0
   34.5431   35.0858   24.3287 H   0  0  0  0  0  0  0  0  0  0  0  0
   32.8544   35.1630   23.8371 H   0  0  0  0  0  0  0  0  0  0  0  0
   33.8667   33.8369   23.3060 H   0  0  0  0  0  0  0  0  0  0  0  0
   33.7524   40.4933   25.3434 H   0  0  0  0  0  0  0  0  0  0  0  0
   32.9496   39.7921   28.4804 C   0  0  0  0  0  0  0  0  0  0  0  0
   34.0453   39.1299   27.6412 C   0  0  0  0  0  0  0  0  0  0  0  0
   33.5281   38.5746   26.3036 C   0  0  0  0  0  0  0  0  0  0  0  0
   32.1229   37.9524   26.4206 C   0  0  0  0  0  0  0  0  0  0  0  0
   31.1901   38.7509   27.3288 C   0  0  0  0  0  0  0  0  0  0  0  0
   31.8241   38.9308   28.5875 O   0  0  0  0  0  0  0  0  0  0  0  0
   33.3250   40.0052   29.4815 H   0  0  0  0  0  0  0  0  0  0  0  0
   32.6550   40.7487   28.0455 H   0  0  0  0  0  0  0  0  0  0  0  0
   34.4385   38.2963   28.2245 H   0  0  0  0  0  0  0  0  0  0  0  0
   34.8852   39.8091   27.4868 H   0  0  0  0  0  0  0  0  0  0  0  0
   34.2135   37.7505   26.1009 H   0  0  0  0  0  0  0  0  0  0  0  0
   31.6727   37.8068   25.4381 H   0  0  0  0  0  0  0  0  0  0  0  0
   32.2285   36.9561   26.8513 H   0  0  0  0  0  0  0  0  0  0  0  0
   30.2506   38.2161   27.4753 H   0  0  0  0  0  0  0  0  0  0  0  0
   30.9522   39.7092   26.8684 H   0  0  0  0  0  0  0  0  0  0  0  0
   35.1705   35.4376   18.8645 O   0  0  0  0  0  0  0  0  0  0  0  0
   38.1889   36.5270   16.1909 C   0  0  0  0  0  0  0  0  0  0  0  0
   38.5083   36.3492   17.5509 C   0  0  0  0  0  0  0  0  0  0  0  0
   37.4932   36.0530   18.4853 C   0  0  0  0  0  0  0  0  0  0  0  0
   36.1688   35.8600   18.0329 C   0  0  0  0  0  0  0  0  0  0  0  0
   35.8790   35.9493   16.6598 C   0  0  0  0  0  0  0  0  0  0  0  0
   36.8698   36.3476   15.7477 C   0  0  0  0  0  0  0  0  0  0  0  0
   38.9587   36.8020   15.4866 H   0  0  0  0  0  0  0  0  0  0  0  0
   39.5291   36.4713   17.8814 H   0  0  0  0  0  0  0  0  0  0  0  0
   37.7388   35.9346   19.5308 H   0  0  0  0  0  0  0  0  0  0  0  0
   34.8807   35.7411   16.3072 H   0  0  0  0  0  0  0  0  0  0  0  0
   36.6315   36.4953   14.7056 H   0  0  0  0  0  0  0  0  0  0  0  0
  1  3  1  0
  1  6  2  0
  1 14  1  0
  2  3  2  0
  2 11  1  0
  2 12  1  0
  3  4  1  0
  4 10  2  0
  4 15  1  0
  5 10  1  0
  5 12  2  0
  5 13  1  0
  6  9  1  0
  6 35  1  0
  7 11  1  0
  7 16  1  0
  7 17  1  0
  7 18  1  0
  8  9  2  0
  9 11  1  0
 13 19  1  0
 13 22  1  0
 20 21  1  0
 20 25  1  0
 20 26  1  0
 20 27  1  0
 21 22  1  0
 21 28  1  0
 21 29  1  0
 22 23  1  0
 22 30  1  0
 23 24  1  0
 23 31  1  0
 23 32  1  0
 24 25  1  0
 24 33  1  0
 24 34  1  0
 35 39  1  0
 36 37  2  0
 36 41  1  0
 36 42  1  0
 37 38  1  0
 37 43  1  0
 38 39  2  0
 38 44  1  0
 39 40  1  0
 40 41  2  0
 40 45  1  0
 41 46  1  0
M  END
>  <s_m_entry_id>  (1) 
828

>  <s_m_Source_Path>  (1) 
/projects/mai/users/kmzp800_harry/pmx_colab/docking_jobs/p38/glide-dock_SP_p38_mcs_docking_2

>  <s_m_Source_File>  (1) 
glide-dock_SP_p38_mcs_docking_2_pv.maegz

>  <i_m_Source_File_Index>  (1) 
12

>  <s_pdb_PDB_TITLE>  (1) 
MX MODEL

>  <r_i_docking_score>  (1) 
-7.36440742058912

>  <r_i_glide_gscore>  (1) 
-7.36440742058912

>  <r_i_glide_emodel>  (1) 
-55.5610819756562

>  <index_string>  (1) 
10:0:0

$$$$
