15:0:0
     RDKit          3D

 39 43  0  0  1  0  0  0  0  0999 V2000
    5.8290   -0.5570   16.4220 C   0  0  0  0  0  0  0  0  0  0  0  0
    4.5550   -1.0120   16.3070 N   0  0  0  0  0  0  0  0  0  0  0  0
    4.0540   -0.2970   15.2860 C   0  0  0  0  0  0  0  0  0  0  0  0
    2.7680   -0.3810   14.7600 C   0  0  0  0  0  0  0  0  0  0  0  0
    1.8160   -1.3040   15.3070 N   0  0  0  0  0  0  0  0  0  0  0  0
    2.4570    0.4420   13.7140 N   0  0  0  0  0  0  0  0  0  0  0  0
    3.3610    1.3260   13.1850 C   0  0  0  0  0  0  0  0  0  0  0  0
    4.6550    1.3910   13.7360 C   0  0  0  0  0  0  0  0  0  0  0  0
    4.9370    0.5650   14.7720 N   0  0  0  0  0  0  0  0  0  0  0  0
    6.0730    0.4280   15.4670 C   0  0  0  0  0  0  0  0  0  0  0  0
    2.9700    2.1940   12.0530 C   0  0  0  0  0  0  0  0  0  0  0  0
    3.9040    2.5160   11.0320 C   0  0  0  0  0  0  0  0  0  0  0  0
    3.5410    3.3400    9.9510 C   0  0  0  0  0  0  0  0  0  0  0  0
    2.2370    3.8210    9.9280 C   0  0  0  0  0  0  0  0  0  0  0  0
    1.5800    4.6310    9.0320 C   0  0  0  0  0  0  0  0  0  0  0  0
    0.3150    4.7830    9.4990 N   0  0  0  0  0  0  0  0  0  0  0  0
    0.1600    4.1090   10.6350 N   0  0  0  0  0  0  0  0  0  0  0  0
    1.3340    3.5190   10.9010 C   0  0  0  0  0  0  0  0  0  0  0  0
    1.6560    2.7080   11.9840 C   0  0  0  0  0  0  0  0  0  0  0  0
    0.4620   -1.5060   14.8780 C   0  0  0  0  0  0  0  0  0  0  0  0
   -0.2240   -0.5600   14.0990 C   0  0  0  0  0  0  0  0  0  0  0  0
   -1.5420   -0.7940   13.7010 C   0  0  0  0  0  0  0  0  0  0  0  0
   -2.1860   -1.9750   14.0770 C   0  0  0  0  0  0  0  0  0  0  0  0
   -1.5110   -2.9220   14.8510 C   0  0  0  0  0  0  0  0  0  0  0  0
   -0.1910   -2.6870   15.2490 C   0  0  0  0  0  0  0  0  0  0  0  0
    6.5615   -0.9138   17.1610 H   0  0  0  0  0  0  0  0  0  0  0  0
    2.1398   -1.8850   16.0934 H   0  0  0  0  0  0  0  0  0  0  0  0
    5.4092    2.0869   13.3398 H   0  0  0  0  0  0  0  0  0  0  0  0
    7.0110    0.9820   15.3147 H   0  0  0  0  0  0  0  0  0  0  0  0
    4.9267    2.1149   11.0876 H   0  0  0  0  0  0  0  0  0  0  0  0
    4.2591    3.5931    9.1571 H   0  0  0  0  0  0  0  0  0  0  0  0
    1.9986    5.0705    8.1146 H   0  0  0  0  0  0  0  0  0  0  0  0
   -0.6980    4.0514   11.2020 H   0  0  0  0  0  0  0  0  0  0  0  0
    0.9127    2.4747   12.7605 H   0  0  0  0  0  0  0  0  0  0  0  0
    0.2800    0.3711   13.8005 H   0  0  0  0  0  0  0  0  0  0  0  0
   -2.0730   -0.0481   13.0913 H   0  0  0  0  0  0  0  0  0  0  0  0
   -3.2242   -2.1593   13.7638 H   0  0  0  0  0  0  0  0  0  0  0  0
   -2.0176   -3.8523   15.1474 H   0  0  0  0  0  0  0  0  0  0  0  0
    0.3375   -3.4354   15.8577 H   0  0  0  0  0  0  0  0  0  0  0  0
  1  2  1  0
  1 10  2  0
  2  3  2  0
  3  4  1  0
  3  9  1  0
  4  5  1  0
  4  6  2  0
  5 20  1  0
  6  7  1  0
  7  8  2  0
  7 11  1  0
  8  9  1  0
  9 10  1  0
 11 12  2  0
 11 19  1  0
 12 13  1  0
 13 14  2  0
 14 18  1  0
 14 15  1  0
 15 16  2  0
 16 17  1  0
 17 18  1  0
 18 19  2  0
 20 25  1  0
 20 21  2  0
 21 22  1  0
 22 23  2  0
 23 24  1  0
 24 25  2  0
  1 26  1  0
  5 27  1  0
  8 28  1  0
 10 29  1  0
 12 30  1  0
 13 31  1  0
 15 32  1  0
 17 33  1  0
 19 34  1  0
 21 35  1  0
 22 36  1  0
 23 37  1  0
 24 38  1  0
 25 39  1  0
M  END
>  <s_m_entry_id>  (1) 
578

>  <MODEL>  (1) 
2

>  <REMARK>  (1) 
 VINA RESULT:    -9.570      1.738      6.215
 INTER + INTRA:         -10.737
 INTER:                 -10.625
 INTRA:                  -0.111
 UNBOUND:                -0.047
  Name = /scratch/kmzp800/tmp0rv2xg1n/tmpe4ka_ijc.pdb
  2 active torsions:
  status: ('A' for Active; 'I' for Inactive)
    1  A    between atoms: N2_5  and  C4_6
    2  A    between atoms: C10_13  and  C11_14
                            x       y       z     vdW  Elec       q    Type
                         _______ _______ _______ _____ _____    ______ ____

>  <TORSDO>  (1) 
F 2

>  <grid_id>  (1) 
syk-prepared

>  <grid_path>  (1) 
syk_vina.pdbqt

>  <grid_filename>  (1) 
syk_vina.pdbqt

>  <docking_score>  (1) 
-9.57

>  <compound_name>  (1) 
CHEMBL3265027

>  <index_string>  (1) 
15:0:0

>  <s_m_Source_Path>  (1) 
/projects/mai/users/kmzp800_harry/pmx_colab/docking_jobs/syk/vina_prep/output

>  <s_m_Source_File>  (1) 
ptp1b_docked_conformers.sdf

>  <i_m_Source_File_Index>  (1) 
402

$$$$
