21:0:0
     RDKit          3D

 48 51  0  0  1  0  0  0  0  0999 V2000
   34.3194   35.0773   20.9343 C   0  0  0  0  0  0  0  0  0  0  0  0
   34.0010   38.9414   23.7249 C   0  0  0  0  0  0  0  0  0  0  0  0
   34.7477   37.8754   21.3680 C   0  0  0  0  0  0  0  0  0  0  0  0
   35.1524   37.2385   20.1151 C   0  0  0  0  0  0  0  0  0  0  0  0
   34.1204   37.0877   22.3503 C   0  0  0  0  0  0  0  0  0  0  0  0
   34.9516   39.2376   21.6728 C   0  0  0  0  0  0  0  0  0  0  0  0
   34.9547   35.9156   19.9131 C   0  0  0  0  0  0  0  0  0  0  0  0
   33.2798   34.8991   23.1469 C   0  0  0  0  0  0  0  0  0  0  0  0
   34.5707   39.7691   22.8550 N   0  0  0  0  0  0  0  0  0  0  0  0
   34.1576   33.8712   20.7444 O   0  0  0  0  0  0  0  0  0  0  0  0
   33.9239   35.6934   22.0878 N   0  0  0  0  0  0  0  0  0  0  0  0
   33.7464   37.6502   23.5197 N   0  0  0  0  0  0  0  0  0  0  0  0
   33.7095   39.4732   24.9681 N   0  0  0  0  0  0  0  0  0  0  0  0
   35.5970   37.8648   19.3557 H   0  0  0  0  0  0  0  0  0  0  0  0
   35.4255   39.9099   20.9707 H   0  0  0  0  0  0  0  0  0  0  0  0
   32.3117   35.3275   23.4088 H   0  0  0  0  0  0  0  0  0  0  0  0
   33.0996   33.8516   22.8973 H   0  0  0  0  0  0  0  0  0  0  0  0
   33.8986   34.9082   24.0429 H   0  0  0  0  0  0  0  0  0  0  0  0
   33.8922   40.4626   25.0854 H   0  0  0  0  0  0  0  0  0  0  0  0
   34.8882   37.7180   27.2354 C   0  0  0  0  0  0  0  0  0  0  0  0
   33.5082   37.5351   26.5874 C   0  0  0  0  0  0  0  0  0  0  0  0
   32.9041   38.8437   26.0198 C   0  0  0  0  0  0  0  0  0  0  0  0
   32.6362   39.8566   27.1488 C   0  0  0  0  0  0  0  0  0  0  0  0
   33.9171   40.2989   27.8835 C   0  0  0  0  0  0  0  0  0  0  0  0
   35.2760   36.7685   27.6055 H   0  0  0  0  0  0  0  0  0  0  0  0
   35.6051   38.1169   26.5235 H   0  0  0  0  0  0  0  0  0  0  0  0
   32.8261   37.1318   27.3368 H   0  0  0  0  0  0  0  0  0  0  0  0
   33.5707   36.7549   25.8318 H   0  0  0  0  0  0  0  0  0  0  0  0
   31.9443   38.5922   25.5679 H   0  0  0  0  0  0  0  0  0  0  0  0
   32.1282   40.7316   26.7378 H   0  0  0  0  0  0  0  0  0  0  0  0
   31.9439   39.4235   27.8712 H   0  0  0  0  0  0  0  0  0  0  0  0
   33.6973   41.0283   28.6627 H   0  0  0  0  0  0  0  0  0  0  0  0
   34.6262   40.7507   27.1961 H   0  0  0  0  0  0  0  0  0  0  0  0
   34.7745   38.8704   28.6594 S   0  0  0  0  0  0  0  0  0  0  0  0
   36.1344   39.2780   29.0440 O   0  0  0  0  0  0  0  0  0  0  0  0
   33.8608   38.2769   29.6461 O   0  0  0  0  0  0  0  0  0  0  0  0
   35.2544   35.2674   18.7386 O   0  0  0  0  0  0  0  0  0  0  0  0
   37.8479   36.7116   15.8094 C   0  0  0  0  0  0  0  0  0  0  0  0
   38.3877   36.3571   17.0708 C   0  0  0  0  0  0  0  0  0  0  0  0
   37.5095   36.0191   18.1206 C   0  0  0  0  0  0  0  0  0  0  0  0
   36.1526   35.7589   17.8237 C   0  0  0  0  0  0  0  0  0  0  0  0
   35.7213   35.8547   16.4877 C   0  0  0  0  0  0  0  0  0  0  0  0
   36.5200   36.4346   15.4964 C   0  0  0  0  0  0  0  0  0  0  0  0
   38.5568   37.3855   14.8935 F   0  0  0  0  0  0  0  0  0  0  0  0
   39.4234   36.5711   17.2877 H   0  0  0  0  0  0  0  0  0  0  0  0
   37.9688   35.9493   19.3924 F   0  0  0  0  0  0  0  0  0  0  0  0
   34.6982   35.5871   16.2512 H   0  0  0  0  0  0  0  0  0  0  0  0
   36.1157   36.7493   14.5474 H   0  0  0  0  0  0  0  0  0  0  0  0
  1  7  1  0
  1 10  2  0
  1 11  1  0
  2  9  1  0
  2 12  2  0
  2 13  1  0
  3  4  1  0
  3  5  2  0
  3  6  1  0
  4  7  2  0
  4 14  1  0
  5 11  1  0
  5 12  1  0
  6  9  2  0
  6 15  1  0
  7 37  1  0
  8 11  1  0
  8 16  1  0
  8 17  1  0
  8 18  1  0
 13 19  1  0
 13 22  1  0
 20 21  1  0
 20 25  1  0
 20 26  1  0
 20 34  1  0
 21 22  1  0
 21 27  1  0
 21 28  1  0
 22 23  1  0
 22 29  1  0
 23 24  1  0
 23 30  1  0
 23 31  1  0
 24 32  1  0
 24 33  1  0
 24 34  1  0
 34 35  2  0
 34 36  2  0
 37 41  1  0
 38 39  2  0
 38 43  1  0
 38 44  1  0
 39 40  1  0
 39 45  1  0
 40 41  2  0
 40 46  1  0
 41 42  1  0
 42 43  2  0
 42 47  1  0
 43 48  1  0
M  END
>  <s_m_entry_id>  (1) 
839

>  <s_m_Source_Path>  (1) 
/projects/mai/users/kmzp800_harry/pmx_colab/docking_jobs/p38/glide-dock_SP_p38_mcs_docking_2

>  <s_m_Source_File>  (1) 
glide-dock_SP_p38_mcs_docking_2_pv.maegz

>  <i_m_Source_File_Index>  (1) 
23

>  <s_pdb_PDB_TITLE>  (1) 
MX MODEL

>  <r_i_docking_score>  (1) 
-7.1873044431992

>  <r_i_glide_gscore>  (1) 
-7.1873044431992

>  <r_i_glide_emodel>  (1) 
-42.3041826009903

>  <index_string>  (1) 
21:0:0

$$$$
