18:0:0
     RDKit          3D

 47 51  0  0  1  0  0  0  0  0999 V2000
    5.6490   -0.5780   16.3660 C   0  0  0  0  0  0  0  0  0  0  0  0
    4.3720   -1.0220   16.2390 N   0  0  0  0  0  0  0  0  0  0  0  0
    3.8820   -0.2880   15.2250 C   0  0  0  0  0  0  0  0  0  0  0  0
    2.5980   -0.3540   14.6920 C   0  0  0  0  0  0  0  0  0  0  0  0
    1.6350   -1.2760   15.2230 N   0  0  0  0  0  0  0  0  0  0  0  0
    2.2990    0.4840   13.6560 N   0  0  0  0  0  0  0  0  0  0  0  0
    3.2120    1.3680   13.1430 C   0  0  0  0  0  0  0  0  0  0  0  0
    4.5040    1.4140   13.7010 C   0  0  0  0  0  0  0  0  0  0  0  0
    4.7740    0.5720   14.7270 N   0  0  0  0  0  0  0  0  0  0  0  0
    5.9050    0.4160   15.4260 C   0  0  0  0  0  0  0  0  0  0  0  0
    2.8340    2.2520   12.0210 C   0  0  0  0  0  0  0  0  0  0  0  0
    3.8070    2.6240   11.0570 C   0  0  0  0  0  0  0  0  0  0  0  0
    3.4750    3.4640    9.9790 C   0  0  0  0  0  0  0  0  0  0  0  0
    2.1600    3.9110    9.8990 C   0  0  0  0  0  0  0  0  0  0  0  0
    1.6220    4.7110    8.9690 N   0  0  0  0  0  0  0  0  0  0  0  0
    0.3280    4.8210    9.3710 C   0  0  0  0  0  0  0  0  0  0  0  0
    0.0450    4.1240   10.5050 N   0  0  0  0  0  0  0  0  0  0  0  0
    1.2210    3.5620   10.8150 C   0  0  0  0  0  0  0  0  0  0  0  0
    1.5110    2.7330   11.8940 C   0  0  0  0  0  0  0  0  0  0  0  0
    0.2820   -1.4620   14.7850 C   0  0  0  0  0  0  0  0  0  0  0  0
   -0.4440   -2.6230   15.0810 C   0  0  0  0  0  0  0  0  0  0  0  0
   -1.7590   -2.7660   14.6350 C   0  0  0  0  0  0  0  0  0  0  0  0
   -2.3710   -1.7500   13.8850 C   0  0  0  0  0  0  0  0  0  0  0  0
   -1.6500   -0.5830   13.5840 C   0  0  0  0  0  0  0  0  0  0  0  0
   -0.3270   -0.4500   14.0370 C   0  0  0  0  0  0  0  0  0  0  0  0
   -3.6870   -1.8750   13.4300 O   0  0  0  0  0  0  0  0  0  0  0  0
   -4.1800   -3.0590   12.8170 C   0  0  0  0  0  0  0  0  0  0  0  0
   -2.2650    0.4260   12.8350 O   0  0  0  0  0  0  0  0  0  0  0  0
   -1.6370    1.0480   11.7210 C   0  0  0  0  0  0  0  0  0  0  0  0
    6.3751   -0.9497   17.1040 H   0  0  0  0  0  0  0  0  0  0  0  0
    1.9499   -1.8690   16.0041 H   0  0  0  0  0  0  0  0  0  0  0  0
    5.2662    2.1084   13.3177 H   0  0  0  0  0  0  0  0  0  0  0  0
    6.8484    0.9640   15.2855 H   0  0  0  0  0  0  0  0  0  0  0  0
    4.8367    2.2495   11.1545 H   0  0  0  0  0  0  0  0  0  0  0  0
    4.2250    3.7559    9.2291 H   0  0  0  0  0  0  0  0  0  0  0  0
   -0.4208    5.4180    8.8298 H   0  0  0  0  0  0  0  0  0  0  0  0
   -0.8533    4.0473   11.0030 H   0  0  0  0  0  0  0  0  0  0  0  0
    0.7354    2.4606   12.6249 H   0  0  0  0  0  0  0  0  0  0  0  0
    0.0248   -3.4264   15.6682 H   0  0  0  0  0  0  0  0  0  0  0  0
   -2.3197   -3.6819   14.8732 H   0  0  0  0  0  0  0  0  0  0  0  0
    0.2380    0.4635   13.7998 H   0  0  0  0  0  0  0  0  0  0  0  0
   -4.4791   -3.7773   13.5946 H   0  0  0  0  0  0  0  0  0  0  0  0
   -5.0504   -2.8127   12.1910 H   0  0  0  0  0  0  0  0  0  0  0  0
   -3.3921   -3.5032   12.1910 H   0  0  0  0  0  0  0  0  0  0  0  0
   -0.8979    1.7801   12.0784 H   0  0  0  0  0  0  0  0  0  0  0  0
   -1.1317    0.2844   11.1115 H   0  0  0  0  0  0  0  0  0  0  0  0
   -2.3957    1.5607   11.1115 H   0  0  0  0  0  0  0  0  0  0  0  0
  1  2  1  0
  1 10  2  0
  2  3  2  0
  3  4  1  0
  3  9  1  0
  4  5  1  0
  4  6  2  0
  5 20  1  0
  6  7  1  0
  7  8  2  0
  7 11  1  0
  8  9  1  0
  9 10  1  0
 11 12  2  0
 11 19  1  0
 12 13  1  0
 13 14  2  0
 14 18  1  0
 14 15  1  0
 15 16  2  0
 16 17  1  0
 17 18  1  0
 18 19  2  0
 20 21  2  0
 20 25  1  0
 21 22  1  0
 22 23  2  0
 23 24  1  0
 23 26  1  0
 24 25  2  0
 24 28  1  0
 26 27  1  0
 28 29  1  0
  1 30  1  0
  5 31  1  0
  8 32  1  0
 10 33  1  0
 12 34  1  0
 13 35  1  0
 16 36  1  0
 17 37  1  0
 19 38  1  0
 21 39  1  0
 22 40  1  0
 25 41  1  0
 27 42  1  0
 27 43  1  0
 27 44  1  0
 29 45  1  0
 29 46  1  0
 29 47  1  0
M  END
>  <s_m_entry_id>  (1) 
662

>  <MODEL>  (1) 
1

>  <REMARK>  (1) 
 VINA RESULT:   -10.018      0.000      0.000
 INTER + INTRA:         -11.906
 INTER:                 -11.580
 INTRA:                  -0.326
 UNBOUND:                 0.455
  Name = /scratch/kmzp800/tmp4m7g88r0/tmpd4w9lb_y.pdb
  6 active torsions:
  status: ('A' for Active; 'I' for Inactive)
    1  A    between atoms: N2_5  and  C4_6
    2  A    between atoms: C7_9  and  O1_10
    3  A    between atoms: O1_10  and  C8_11
    4  A    between atoms: C9_12  and  O2_13
    5  A    between atoms: O2_13  and  C10_14
    6  A    between atoms: C12_17  and  C13_18
                            x       y       z     vdW  Elec       q    Type
                         _______ _______ _______ _____ _____    ______ ____

>  <TORSDO>  (1) 
F 4

>  <grid_id>  (1) 
syk-prepared

>  <grid_path>  (1) 
syk_vina.pdbqt

>  <grid_filename>  (1) 
syk_vina.pdbqt

>  <docking_score>  (1) 
-10.018

>  <compound_name>  (1) 
CHEMBL3265018

>  <index_string>  (1) 
18:0:0

>  <s_m_Source_Path>  (1) 
/projects/mai/users/kmzp800_harry/pmx_colab/docking_jobs/syk/vina_prep/output

>  <s_m_Source_File>  (1) 
ptp1b_docked_conformers.sdf

>  <i_m_Source_File_Index>  (1) 
486

$$$$
