15:0:0
     RDKit          3D

 46 49  0  0  1  0  0  0  0  0999 V2000
   34.4645   35.1532   21.2111 C   0  0  0  0  0  0  0  0  0  0  0  0
   33.6612   39.0161   23.8728 C   0  0  0  0  0  0  0  0  0  0  0  0
   34.7186   37.9618   21.6465 C   0  0  0  0  0  0  0  0  0  0  0  0
   35.3192   37.3372   20.4736 C   0  0  0  0  0  0  0  0  0  0  0  0
   34.0298   37.1519   22.5710 C   0  0  0  0  0  0  0  0  0  0  0  0
   34.7947   39.3388   21.9266 C   0  0  0  0  0  0  0  0  0  0  0  0
   35.2016   36.0075   20.2787 C   0  0  0  0  0  0  0  0  0  0  0  0
   33.2100   34.9167   23.2947 C   0  0  0  0  0  0  0  0  0  0  0  0
   34.2772   39.8677   23.0551 N   0  0  0  0  0  0  0  0  0  0  0  0
   34.3278   33.9502   20.9891 O   0  0  0  0  0  0  0  0  0  0  0  0
   33.9425   35.7458   22.3214 N   0  0  0  0  0  0  0  0  0  0  0  0
   33.4890   37.7142   23.6708 N   0  0  0  0  0  0  0  0  0  0  0  0
   33.1865   39.5484   25.0507 N   0  0  0  0  0  0  0  0  0  0  0  0
   35.8591   37.9709   19.7862 H   0  0  0  0  0  0  0  0  0  0  0  0
   35.3033   40.0069   21.2521 H   0  0  0  0  0  0  0  0  0  0  0  0
   32.1405   34.9724   23.0978 H   0  0  0  0  0  0  0  0  0  0  0  0
   33.4960   33.8641   23.2818 H   0  0  0  0  0  0  0  0  0  0  0  0
   33.3806   35.2527   24.3165 H   0  0  0  0  0  0  0  0  0  0  0  0
   33.3954   40.5273   25.2122 H   0  0  0  0  0  0  0  0  0  0  0  0
   33.2748   38.2003   28.6234 C   0  0  0  0  0  0  0  0  0  0  0  0
   33.7671   38.9580   27.3790 C   0  0  0  0  0  0  0  0  0  0  0  0
   32.7793   38.7697   26.2175 C   0  0  0  0  0  0  0  0  0  0  0  0
   31.3743   39.1660   26.6862 C   0  0  0  0  0  0  0  0  0  0  0  0
   30.9991   38.3868   27.9578 C   0  0  0  0  0  0  0  0  0  0  0  0
   31.9653   38.6375   28.9746 O   0  0  0  0  0  0  0  0  0  0  0  0
   33.2722   37.1222   28.4473 H   0  0  0  0  0  0  0  0  0  0  0  0
   33.9450   38.3852   29.4633 H   0  0  0  0  0  0  0  0  0  0  0  0
   34.7616   38.6057   27.0951 H   0  0  0  0  0  0  0  0  0  0  0  0
   33.8662   40.0184   27.6186 H   0  0  0  0  0  0  0  0  0  0  0  0
   32.7505   37.7064   25.9766 H   0  0  0  0  0  0  0  0  0  0  0  0
   31.3551   40.2347   26.8868 H   0  0  0  0  0  0  0  0  0  0  0  0
   30.6440   38.9770   25.9016 H   0  0  0  0  0  0  0  0  0  0  0  0
   30.9325   37.3175   27.7532 H   0  0  0  0  0  0  0  0  0  0  0  0
   30.0219   38.7028   28.3233 H   0  0  0  0  0  0  0  0  0  0  0  0
   35.7426   35.3370   19.2161 O   0  0  0  0  0  0  0  0  0  0  0  0
   37.9176   36.5713   15.8900 C   0  0  0  0  0  0  0  0  0  0  0  0
   38.5518   36.4472   17.1409 C   0  0  0  0  0  0  0  0  0  0  0  0
   37.7928   36.2223   18.3041 C   0  0  0  0  0  0  0  0  0  0  0  0
   36.4171   35.9450   18.1939 C   0  0  0  0  0  0  0  0  0  0  0  0
   35.8067   35.9495   16.9299 C   0  0  0  0  0  0  0  0  0  0  0  0
   36.5323   36.3479   15.7942 C   0  0  0  0  0  0  0  0  0  0  0  0
   38.4936   36.8328   15.0139 H   0  0  0  0  0  0  0  0  0  0  0  0
   39.6111   36.6317   17.2348 H   0  0  0  0  0  0  0  0  0  0  0  0
   38.3948   36.2143   19.5145 F   0  0  0  0  0  0  0  0  0  0  0  0
   34.7737   35.6454   16.8378 H   0  0  0  0  0  0  0  0  0  0  0  0
   36.0343   36.4231   14.8410 H   0  0  0  0  0  0  0  0  0  0  0  0
  1  7  1  0
  1 10  2  0
  1 11  1  0
  2  9  1  0
  2 12  2  0
  2 13  1  0
  3  4  1  0
  3  5  2  0
  3  6  1  0
  4  7  2  0
  4 14  1  0
  5 11  1  0
  5 12  1  0
  6  9  2  0
  6 15  1  0
  7 35  1  0
  8 11  1  0
  8 16  1  0
  8 17  1  0
  8 18  1  0
 13 19  1  0
 13 22  1  0
 20 21  1  0
 20 25  1  0
 20 26  1  0
 20 27  1  0
 21 22  1  0
 21 28  1  0
 21 29  1  0
 22 23  1  0
 22 30  1  0
 23 24  1  0
 23 31  1  0
 23 32  1  0
 24 25  1  0
 24 33  1  0
 24 34  1  0
 35 39  1  0
 36 37  2  0
 36 41  1  0
 36 42  1  0
 37 38  1  0
 37 43  1  0
 38 39  2  0
 38 44  1  0
 39 40  1  0
 40 41  2  0
 40 45  1  0
 41 46  1  0
M  END
>  <s_m_entry_id>  (1) 
833

>  <s_m_Source_Path>  (1) 
/projects/mai/users/kmzp800_harry/pmx_colab/docking_jobs/p38/glide-dock_SP_p38_mcs_docking_2

>  <s_m_Source_File>  (1) 
glide-dock_SP_p38_mcs_docking_2_pv.maegz

>  <i_m_Source_File_Index>  (1) 
17

>  <s_pdb_PDB_TITLE>  (1) 
MX MODEL

>  <r_i_docking_score>  (1) 
-7.24246688997063

>  <r_i_glide_gscore>  (1) 
-7.24246688997063

>  <r_i_glide_emodel>  (1) 
-48.5286661038528

>  <index_string>  (1) 
15:0:0

$$$$
