33:0:0
     RDKit          3D

 52 57  0  0  1  0  0  0  0  0999 V2000
    1.8230   -1.4390   15.4030 N   0  0  0  0  0  0  0  0  0  0  0  0
    2.7020   -0.4620   14.8260 C   0  0  0  0  0  0  0  0  0  0  0  0
    2.3100    0.3380   13.7910 N   0  0  0  0  0  0  0  0  0  0  0  0
    3.1420    1.2740   13.2320 C   0  0  0  0  0  0  0  0  0  0  0  0
    4.4470    1.4140   13.7410 C   0  0  0  0  0  0  0  0  0  0  0  0
    4.8100    0.6080   14.7670 N   0  0  0  0  0  0  0  0  0  0  0  0
    5.9750    0.5380   15.4250 C   0  0  0  0  0  0  0  0  0  0  0  0
    5.8200   -0.4570   16.3870 C   0  0  0  0  0  0  0  0  0  0  0  0
    4.5720   -0.9860   16.3130 N   0  0  0  0  0  0  0  0  0  0  0  0
    3.9980   -0.3020   15.3090 C   0  0  0  0  0  0  0  0  0  0  0  0
    2.6650    2.1140   12.1140 C   0  0  0  0  0  0  0  0  0  0  0  0
    3.5730    2.6160   11.1460 C   0  0  0  0  0  0  0  0  0  0  0  0
    3.1290    3.4180   10.0780 C   0  0  0  0  0  0  0  0  0  0  0  0
    1.7680    3.6920   10.0150 C   0  0  0  0  0  0  0  0  0  0  0  0
    1.0280    4.4270    9.1180 C   0  0  0  0  0  0  0  0  0  0  0  0
   -0.2630    4.3640    9.5350 N   0  0  0  0  0  0  0  0  0  0  0  0
   -0.3540    3.6300   10.6400 N   0  0  0  0  0  0  0  0  0  0  0  0
    0.8860    3.2170   10.9360 C   0  0  0  0  0  0  0  0  0  0  0  0
    1.2890    2.4230   12.0050 C   0  0  0  0  0  0  0  0  0  0  0  0
   -2.1730   -2.3420   14.3040 C   0  0  0  0  0  0  0  0  0  0  0  0
   -1.5900   -1.1530   13.8590 C   0  0  0  0  0  0  0  0  0  0  0  0
   -0.2740   -0.8430   14.2140 C   0  0  0  0  0  0  0  0  0  0  0  0
    0.4710   -1.7200   15.0180 C   0  0  0  0  0  0  0  0  0  0  0  0
   -0.1210   -2.9090   15.4590 C   0  0  0  0  0  0  0  0  0  0  0  0
   -1.4360   -3.2200   15.1050 C   0  0  0  0  0  0  0  0  0  0  0  0
   -5.5780   -3.1480   13.3870 C   0  0  0  0  0  0  0  0  0  0  0  0
   -6.1610   -4.5440   13.4450 C   0  0  0  0  0  0  0  0  0  0  0  0
   -4.8310   -2.7450   14.6020 C   0  0  0  0  0  0  0  0  0  0  0  0
   -3.5160   -2.6600   13.9420 N   0  0  0  0  0  0  0  0  0  0  0  0
   -4.2510   -3.0630   12.7310 C   0  0  0  0  0  0  0  0  0  0  0  0
   -6.4670   -2.1690   12.9460 O   0  0  0  0  0  0  0  0  0  0  0  0
    2.2053   -1.9993   16.1782 H   0  0  0  0  0  0  0  0  0  0  0  0
    5.1466    2.1514   13.3206 H   0  0  0  0  0  0  0  0  0  0  0  0
    6.8740    1.1449   15.2420 H   0  0  0  0  0  0  0  0  0  0  0  0
    6.5954   -0.7687   17.1022 H   0  0  0  0  0  0  0  0  0  0  0  0
    4.6426    2.3741   11.2318 H   0  0  0  0  0  0  0  0  0  0  0  0
    3.8289    3.8109    9.3258 H   0  0  0  0  0  0  0  0  0  0  0  0
    1.4079    4.9616    8.2349 H   0  0  0  0  0  0  0  0  0  0  0  0
   -1.2132    3.4192   11.1675 H   0  0  0  0  0  0  0  0  0  0  0  0
    0.5621    2.0482   12.7406 H   0  0  0  0  0  0  0  0  0  0  0  0
   -2.1670   -0.4602   13.2288 H   0  0  0  0  0  0  0  0  0  0  0  0
    0.1808    0.0943   13.8610 H   0  0  0  0  0  0  0  0  0  0  0  0
    0.4536   -3.6039   16.0891 H   0  0  0  0  0  0  0  0  0  0  0  0
   -1.8925   -4.1569   15.4568 H   0  0  0  0  0  0  0  0  0  0  0  0
   -6.2869   -4.8454   14.4954 H   0  0  0  0  0  0  0  0  0  0  0  0
   -7.1386   -4.5543   12.9409 H   0  0  0  0  0  0  0  0  0  0  0  0
   -5.4811   -5.2465   12.9409 H   0  0  0  0  0  0  0  0  0  0  0  0
   -5.1672   -1.7798   15.0087 H   0  0  0  0  0  0  0  0  0  0  0  0
   -4.9122   -3.3968   15.4844 H   0  0  0  0  0  0  0  0  0  0  0  0
   -3.9119   -4.0287   12.3280 H   0  0  0  0  0  0  0  0  0  0  0  0
   -4.1648   -2.4127   11.8480 H   0  0  0  0  0  0  0  0  0  0  0  0
   -6.8760   -1.7186   13.7270 H   0  0  0  0  0  0  0  0  0  0  0  0
  1  2  1  0
  1 23  1  0
  2 10  1  0
  2  3  2  0
  3  4  1  0
  4  5  2  0
  4 11  1  0
  5  6  1  0
  6 10  1  0
  6  7  1  0
  7  8  2  0
  8  9  1  0
  9 10  2  0
 11 12  2  0
 11 19  1  0
 12 13  1  0
 13 14  2  0
 14 18  1  0
 14 15  1  0
 15 16  2  0
 16 17  1  0
 17 18  1  0
 18 19  2  0
 20 25  1  0
 20 21  2  0
 20 29  1  0
 21 22  1  0
 22 23  2  0
 23 24  1  0
 24 25  2  0
 26 27  1  0
 26 28  1  0
 26 30  1  0
 26 31  1  0
 28 29  1  0
 29 30  1  0
  1 32  1  0
  5 33  1  0
  7 34  1  0
  8 35  1  0
 12 36  1  0
 13 37  1  0
 15 38  1  0
 17 39  1  0
 19 40  1  0
 21 41  1  0
 22 42  1  0
 24 43  1  0
 25 44  1  0
 27 45  1  0
 27 46  1  0
 27 47  1  0
 28 48  1  0
 28 49  1  0
 30 50  1  0
 30 51  1  0
 31 52  1  0
M  END
>  <s_m_entry_id>  (1) 
1013

>  <MODEL>  (1) 
1

>  <REMARK>  (1) 
 VINA RESULT:    -9.512      0.000      0.000
 INTER + INTRA:         -12.076
 INTER:                 -11.811
 INTRA:                  -0.264
 UNBOUND:                -0.617
  Name = /scratch/kmzp800/tmp0pa_g58c/tmp68l9_bcx.pdb
  5 active torsions:
  status: ('A' for Active; 'I' for Inactive)
    1  A    between atoms: O1_1  and  C1_2
    2  A    between atoms: C1_2  and  C2_3
    3  A    between atoms: N1_5  and  C4_6
    4  A    between atoms: C7_9  and  N2_10
    5  A    between atoms: C9_13  and  C10_14
                            x       y       z     vdW  Elec       q    Type
                         _______ _______ _______ _____ _____    ______ ____

>  <TORSDO>  (1) 
F 4

>  <grid_id>  (1) 
syk-prepared

>  <grid_path>  (1) 
syk_vina.pdbqt

>  <grid_filename>  (1) 
syk_vina.pdbqt

>  <docking_score>  (1) 
-9.512

>  <compound_name>  (1) 
CHEMBL3265030_n

>  <index_string>  (1) 
33:0:0

>  <s_m_Source_Path>  (1) 
/projects/mai/users/kmzp800_harry/pmx_colab/docking_jobs/syk/vina_prep/output

>  <s_m_Source_File>  (1) 
ptp1b_docked_conformers.sdf

>  <i_m_Source_File_Index>  (1) 
837

$$$$
