17:0:0
     RDKit          3D

 37 38  0  0  1  0  0  0  0  0999 V2000
   39.2011   17.5487   12.6944 O   0  0  0  0  0  0  0  0  0  0  0  0
   40.3621   17.0678   12.6946 C   0  0  0  0  0  0  0  0  0  0  0  0
   41.2277   17.3114   11.8256 O   0  0  0  0  0  0  0  0  0  0  0  0
   40.7381   16.1249   13.8385 C   0  0  0  0  0  0  0  0  0  0  0  0
   42.1058   15.7293   13.7391 O   0  0  0  0  0  0  0  0  0  0  0  0
   42.5172   14.9307   14.7467 C   0  0  0  0  0  0  0  0  0  0  0  0
   42.1732   13.5595   14.8773 C   0  0  0  0  0  0  0  0  0  0  0  0
   41.1764   12.6875   13.5401 Br  0  0  0  0  0  0  0  0  0  0  0  0
   42.6150   12.9398   16.0093 C   0  0  0  0  0  0  0  0  0  0  0  0
   42.3395   11.5909   16.4809 C   0  0  0  0  0  0  0  0  0  0  0  0
   43.3707   10.7630   16.9535 C   0  0  0  0  0  0  0  0  0  0  0  0
   43.0946    9.4543   17.3764 C   0  0  0  0  0  0  0  0  0  0  0  0
   41.7816    8.9583   17.3083 C   0  0  0  0  0  0  0  0  0  0  0  0
   40.7365    9.7782   16.8360 C   0  0  0  0  0  0  0  0  0  0  0  0
   39.3961    9.3470   16.6795 N   0  0  0  0  0  0  0  0  0  0  0  0
   38.7506    8.3428   17.3044 C   0  0  0  0  0  0  0  0  0  0  0  0
   39.2524    7.6177   18.1637 O   0  0  0  0  0  0  0  0  0  0  0  0
   37.2892    8.1518   16.8976 C   0  0  0  0  0  0  0  0  0  0  0  0
   41.0228   11.0912   16.4407 C   0  0  0  0  0  0  0  0  0  0  0  0
   43.6313   14.0198   16.9178 S   0  0  0  0  0  0  0  0  0  0  0  0
   43.3567   15.3187   15.7618 C   0  0  0  0  0  0  0  0  0  0  0  0
   44.0238   16.5977   16.0426 C   0  0  0  0  0  0  0  0  0  0  0  0
   43.8655   17.5545   15.2521 O   0  0  0  0  0  0  0  0  0  0  0  0
   44.7509   16.6800   17.0552 O   0  0  0  0  0  0  0  0  0  0  0  0
   40.1149   15.2399   13.7825 H   0  0  0  0  0  0  0  0  0  0  0  0
   40.5293   16.6037   14.7989 H   0  0  0  0  0  0  0  0  0  0  0  0
   44.3832   11.1269   16.9847 H   0  0  0  0  0  0  0  0  0  0  0  0
   43.8894    8.8265   17.7410 H   0  0  0  0  0  0  0  0  0  0  0  0
   41.6019    7.9437   17.6145 H   0  0  0  0  0  0  0  0  0  0  0  0
   38.8372    9.9043   16.0530 H   0  0  0  0  0  0  0  0  0  0  0  0
   40.2282   11.7269   16.1051 H   0  0  0  0  0  0  0  0  0  0  0  0
   36.5147    7.2313   17.8552 C   0  0  0  0  0  0  0  0  0  0  0  0
   37.2456    7.7418   15.8891 H   0  0  0  0  0  0  0  0  0  0  0  0
   35.4940    7.0834   17.5066 H   0  0  0  0  0  0  0  0  0  0  0  0
   36.8082    9.1288   16.8616 H   0  0  0  0  0  0  0  0  0  0  0  0
   36.4642    7.6531   18.8581 H   0  0  0  0  0  0  0  0  0  0  0  0
   36.9857    6.2491   17.9254 H   0  0  0  0  0  0  0  0  0  0  0  0
  1  2  2  0
  2  3  1  0
  2  4  1  0
  4  5  1  0
  4 25  1  0
  4 26  1  0
  5  6  1  0
  6  7  1  0
  6 21  2  0
  7  8  1  0
  7  9  2  0
  9 10  1  0
  9 20  1  0
 10 11  2  0
 10 19  1  0
 11 12  1  0
 11 27  1  0
 12 13  2  0
 12 28  1  0
 13 14  1  0
 13 29  1  0
 14 15  1  0
 14 19  2  0
 15 16  1  0
 15 30  1  0
 16 17  2  0
 16 18  1  0
 18 32  1  0
 18 33  1  0
 18 35  1  0
 19 31  1  0
 20 21  1  0
 21 22  1  0
 22 23  2  0
 22 24  1  0
 32 34  1  0
 32 36  1  0
 32 37  1  0
M  CHG  2   3  -1  24  -1
M  END
>  <s_m_entry_id>  (1) 
534

>  <s_m_Source_Path>  (1) 
/projects/mai/users/kmzp800_harry/pmx_colab/docking_jobs/ptp1b/glide-dock_SP_ptp1b_mcs_2

>  <s_m_Source_File>  (1) 
glide-dock_SP_ptp1b_mcs_2_pv.maegz

>  <i_m_Source_File_Index>  (1) 
19

>  <r_i_docking_score>  (1) 
-6.46708875360414

>  <r_i_glide_gscore>  (1) 
-6.46708875360414

>  <r_i_glide_emodel>  (1) 
-78.7950321778492

>  <index_string>  (1) 
17:0:0

$$$$
