6:0:0
     RDKit          3D

 48 50  0  0  1  0  0  0  0  0999 V2000
   39.1965   17.5444   12.6860 O   0  0  0  0  0  0  0  0  0  0  0  0
   40.3569   17.0717   12.6839 C   0  0  0  0  0  0  0  0  0  0  0  0
   41.2213   17.3099   11.8098 O   0  0  0  0  0  0  0  0  0  0  0  0
   40.7278   16.1177   13.8228 C   0  0  0  0  0  0  0  0  0  0  0  0
   42.1001   15.7384   13.7434 O   0  0  0  0  0  0  0  0  0  0  0  0
   42.5080   14.9342   14.7507 C   0  0  0  0  0  0  0  0  0  0  0  0
   42.1607   13.5662   14.8818 C   0  0  0  0  0  0  0  0  0  0  0  0
   41.1737   12.6865   13.5417 Br  0  0  0  0  0  0  0  0  0  0  0  0
   42.6071   12.9385   16.0096 C   0  0  0  0  0  0  0  0  0  0  0  0
   42.3383   11.5904   16.4812 C   0  0  0  0  0  0  0  0  0  0  0  0
   43.3742   10.7670   16.9579 C   0  0  0  0  0  0  0  0  0  0  0  0
   43.1023    9.4596   17.3868 C   0  0  0  0  0  0  0  0  0  0  0  0
   41.7900    8.9624   17.3320 C   0  0  0  0  0  0  0  0  0  0  0  0
   40.7371    9.7733   16.8555 C   0  0  0  0  0  0  0  0  0  0  0  0
   39.4079    9.3380   16.7711 N   0  0  0  0  0  0  0  0  0  0  0  0
   39.0963    7.9173   16.7219 C   0  0  0  0  0  0  0  0  0  0  0  0
   41.0229   11.0847   16.4468 C   0  0  0  0  0  0  0  0  0  0  0  0
   43.6259   14.0183   16.9141 S   0  0  0  0  0  0  0  0  0  0  0  0
   43.3446   15.3202   15.7675 C   0  0  0  0  0  0  0  0  0  0  0  0
   44.0079   16.5946   16.0445 C   0  0  0  0  0  0  0  0  0  0  0  0
   43.8365   17.5557   15.2643 O   0  0  0  0  0  0  0  0  0  0  0  0
   44.7430   16.6864   17.0504 O   0  0  0  0  0  0  0  0  0  0  0  0
   40.4769   16.5736   14.7825 H   0  0  0  0  0  0  0  0  0  0  0  0
   40.1101   15.2312   13.7299 H   0  0  0  0  0  0  0  0  0  0  0  0
   44.3834   11.1410   16.9911 H   0  0  0  0  0  0  0  0  0  0  0  0
   43.8991    8.8364   17.7594 H   0  0  0  0  0  0  0  0  0  0  0  0
   41.6203    7.9571   17.6706 H   0  0  0  0  0  0  0  0  0  0  0  0
   38.7433    9.9615   16.3397 H   0  0  0  0  0  0  0  0  0  0  0  0
   39.8648    7.3189   17.2015 H   0  0  0  0  0  0  0  0  0  0  0  0
   38.1865    7.7569   17.2971 H   0  0  0  0  0  0  0  0  0  0  0  0
   40.2221   11.7138   16.0947 H   0  0  0  0  0  0  0  0  0  0  0  0
   38.1495    8.0613   14.8230 H   0  0  0  0  0  0  0  0  0  0  0  0
   40.0279    6.9232   13.0642 C   0  0  0  0  0  0  0  0  0  0  0  0
   40.1986    7.4905   14.4801 C   0  0  0  0  0  0  0  0  0  0  0  0
   38.8905    7.4151   15.2911 C   0  0  0  0  0  0  0  0  0  0  0  0
   38.3457    5.9742   15.3135 C   0  0  0  0  0  0  0  0  0  0  0  0
   38.1716    5.4100   13.8952 C   0  0  0  0  0  0  0  0  0  0  0  0
   39.4862    5.4868   13.1045 C   0  0  0  0  0  0  0  0  0  0  0  0
   39.3487    7.5587   12.4941 H   0  0  0  0  0  0  0  0  0  0  0  0
   40.9838    6.9450   12.5405 H   0  0  0  0  0  0  0  0  0  0  0  0
   40.5383    8.5246   14.4186 H   0  0  0  0  0  0  0  0  0  0  0  0
   40.9838    6.9461   15.0058 H   0  0  0  0  0  0  0  0  0  0  0  0
   39.0279    5.3371   15.8788 H   0  0  0  0  0  0  0  0  0  0  0  0
   37.3916    5.9448   15.8435 H   0  0  0  0  0  0  0  0  0  0  0  0
   37.3924    5.9675   13.3715 H   0  0  0  0  0  0  0  0  0  0  0  0
   37.8323    4.3743   13.9478 H   0  0  0  0  0  0  0  0  0  0  0  0
   39.3275    5.1206   12.0940 H   0  0  0  0  0  0  0  0  0  0  0  0
   40.2287    4.8259   13.5567 H   0  0  0  0  0  0  0  0  0  0  0  0
  1  2  2  0
  2  3  1  0
  2  4  1  0
  4  5  1  0
  4 23  1  0
  4 24  1  0
  5  6  1  0
  6  7  1  0
  6 19  2  0
  7  8  1  0
  7  9  2  0
  9 10  1  0
  9 18  1  0
 10 11  2  0
 10 17  1  0
 11 12  1  0
 11 25  1  0
 12 13  2  0
 12 26  1  0
 13 14  1  0
 13 27  1  0
 14 15  1  0
 14 17  2  0
 15 16  1  0
 15 28  1  0
 16 29  1  0
 16 30  1  0
 16 35  1  0
 17 31  1  0
 18 19  1  0
 19 20  1  0
 20 21  2  0
 20 22  1  0
 32 35  1  0
 33 34  1  0
 33 38  1  0
 33 39  1  0
 33 40  1  0
 34 35  1  0
 34 41  1  0
 34 42  1  0
 35 36  1  0
 36 37  1  0
 36 43  1  0
 36 44  1  0
 37 38  1  0
 37 45  1  0
 37 46  1  0
 38 47  1  0
 38 48  1  0
M  CHG  2   3  -1  22  -1
M  END
>  <s_m_entry_id>  (1) 
523

>  <s_m_Source_Path>  (1) 
/projects/mai/users/kmzp800_harry/pmx_colab/docking_jobs/ptp1b/glide-dock_SP_ptp1b_mcs_2

>  <s_m_Source_File>  (1) 
glide-dock_SP_ptp1b_mcs_2_pv.maegz

>  <i_m_Source_File_Index>  (1) 
8

>  <r_i_docking_score>  (1) 
-6.80037608832584

>  <r_i_glide_gscore>  (1) 
-6.80037608832584

>  <r_i_glide_emodel>  (1) 
-85.877726185042

>  <index_string>  (1) 
6:0:0

$$$$
