33:0:0
     RDKit          3D

 53 58  0  0  1  0  0  0  0  0999 V2000
   -6.3373   -1.9960   15.5123 C   0  0  0  0  0  0  0  0  0  0  0  0
   -4.8489   -1.6515   15.6802 C   0  0  0  0  0  0  0  0  0  0  0  0
   -4.0044   -2.4400   14.6689 C   0  0  0  0  0  0  0  0  0  0  0  0
   -4.5536   -2.2288   13.2445 C   0  0  0  0  0  0  0  0  0  0  0  0
   -6.0639   -2.5257   13.2115 C   0  0  0  0  0  0  0  0  0  0  0  0
   -6.7454   -1.7246   14.1737 O   0  0  0  0  0  0  0  0  0  0  0  0
   -2.5258   -2.1163   14.8015 C   0  0  0  0  0  0  0  0  0  0  0  0
   -1.7324   -2.8699   15.6898 C   0  0  0  0  0  0  0  0  0  0  0  0
   -0.3590   -2.5980   15.8176 C   0  0  0  0  0  0  0  0  0  0  0  0
    0.2424   -1.5571   15.0824 C   0  0  0  0  0  0  0  0  0  0  0  0
    1.6075   -1.3318   15.3066 N   0  0  0  0  0  0  0  0  0  0  0  0
    2.5284   -0.4446   14.7289 C   0  0  0  0  0  0  0  0  0  0  0  0
    2.1915    0.3556   13.7586 N   0  0  0  0  0  0  0  0  0  0  0  0
    3.1219    1.2397   13.2387 C   0  0  0  0  0  0  0  0  0  0  0  0
    4.4233    1.2885   13.6932 C   0  0  0  0  0  0  0  0  0  0  0  0
    4.7583    0.4834   14.7336 N   0  0  0  0  0  0  0  0  0  0  0  0
    5.9018    0.3835   15.5004 C   0  0  0  0  0  0  0  0  0  0  0  0
    5.5940   -0.4981   16.5041 C   0  0  0  0  0  0  0  0  0  0  0  0
    4.3501   -1.0630   16.3290 N   0  0  0  0  0  0  0  0  0  0  0  0
    3.8249   -0.4107   15.3014 C   0  0  0  0  0  0  0  0  0  0  0  0
    2.6461    2.1482   12.1569 C   0  0  0  0  0  0  0  0  0  0  0  0
    3.5597    2.6515   11.1948 C   0  0  0  0  0  0  0  0  0  0  0  0
    3.1420    3.4836   10.1384 C   0  0  0  0  0  0  0  0  0  0  0  0
    1.7896    3.8640   10.0270 C   0  0  0  0  0  0  0  0  0  0  0  0
    0.9883    4.6344    9.1273 C   0  0  0  0  0  0  0  0  0  0  0  0
   -0.2675    4.6469    9.5011 N   0  0  0  0  0  0  0  0  0  0  0  0
   -0.3251    3.9212   10.6426 N   0  0  0  0  0  0  0  0  0  0  0  0
    0.8902    3.3919   11.0222 C   0  0  0  0  0  0  0  0  0  0  0  0
    1.2942    2.5492   12.0726 C   0  0  0  0  0  0  0  0  0  0  0  0
   -0.5604   -0.7972   14.2048 C   0  0  0  0  0  0  0  0  0  0  0  0
   -1.9284   -1.0686   14.0693 C   0  0  0  0  0  0  0  0  0  0  0  0
   -6.5257   -3.0435   15.7540 H   0  0  0  0  0  0  0  0  0  0  0  0
   -6.9434   -1.3977   16.1936 H   0  0  0  0  0  0  0  0  0  0  0  0
   -4.5256   -1.8741   16.6983 H   0  0  0  0  0  0  0  0  0  0  0  0
   -4.7036   -0.5815   15.5376 H   0  0  0  0  0  0  0  0  0  0  0  0
   -4.1185   -3.4997   14.9042 H   0  0  0  0  0  0  0  0  0  0  0  0
   -4.3699   -1.2034   12.9034 H   0  0  0  0  0  0  0  0  0  0  0  0
   -4.0334   -2.8811   12.5416 H   0  0  0  0  0  0  0  0  0  0  0  0
   -6.2534   -3.5821   13.4087 H   0  0  0  0  0  0  0  0  0  0  0  0
   -6.4675   -2.3135   12.2211 H   0  0  0  0  0  0  0  0  0  0  0  0
   -2.1681   -3.6650   16.2787 H   0  0  0  0  0  0  0  0  0  0  0  0
    0.2295   -3.1879   16.5067 H   0  0  0  0  0  0  0  0  0  0  0  0
    2.0226   -1.9055   16.0307 H   0  0  0  0  0  0  0  0  0  0  0  0
    5.1788    1.9818   13.3422 H   0  0  0  0  0  0  0  0  0  0  0  0
    6.7584    1.0087   15.3011 H   0  0  0  0  0  0  0  0  0  0  0  0
    6.1129   -0.7594   17.4007 H   0  0  0  0  0  0  0  0  0  0  0  0
    4.5990    2.3631   11.2328 H   0  0  0  0  0  0  0  0  0  0  0  0
    3.8565    3.8207    9.4028 H   0  0  0  0  0  0  0  0  0  0  0  0
    1.2840    5.1580    8.2285 H   0  0  0  0  0  0  0  0  0  0  0  0
   -1.2017    3.8004   11.1281 H   0  0  0  0  0  0  0  0  0  0  0  0
    0.5753    2.2014   12.7986 H   0  0  0  0  0  0  0  0  0  0  0  0
   -0.1703    0.0170   13.6208 H   0  0  0  0  0  0  0  0  0  0  0  0
   -2.4897   -0.4486   13.3902 H   0  0  0  0  0  0  0  0  0  0  0  0
  1  2  1  0
  1  6  1  0
  1 32  1  0
  1 33  1  0
  2  3  1  0
  2 34  1  0
  2 35  1  0
  3  4  1  0
  3  7  1  0
  3 36  1  0
  4  5  1  0
  4 37  1  0
  4 38  1  0
  5  6  1  0
  5 39  1  0
  5 40  1  0
  7  8  2  0
  7 31  1  0
  8  9  1  0
  8 41  1  0
  9 10  2  0
  9 42  1  0
 10 11  1  0
 10 30  1  0
 11 12  1  0
 11 43  1  0
 12 13  2  0
 12 20  1  0
 13 14  1  0
 14 15  2  0
 14 21  1  0
 15 16  1  0
 15 44  1  0
 16 17  1  0
 16 20  1  0
 17 18  2  0
 17 45  1  0
 18 19  1  0
 18 46  1  0
 19 20  2  0
 21 22  2  0
 21 29  1  0
 22 23  1  0
 22 47  1  0
 23 24  2  0
 23 48  1  0
 24 25  1  0
 24 28  1  0
 25 26  2  0
 25 49  1  0
 26 27  1  0
 27 28  1  0
 27 50  1  0
 28 29  2  0
 29 51  1  0
 30 31  2  0
 30 52  1  0
 31 53  1  0
M  END
>  <s_m_entry_id>  (1) 
1097

>  <IC50[nM]>  (1) 
3.8

>  <s_m_Source_Path>  (1) 
/projects/mai/users/kmzp800_harry/pmx_colab/docking_jobs/syk

>  <s_m_Source_File>  (1) 
tnks2_lig.sdf

>  <i_m_Source_File_Index>  (1) 
37

>  <s_m_job_name>  (1) 
glide-dock_SP_syk_mcs

>  <r_i_docking_score>  (1) 
-6.89066653776115

>  <r_i_glide_gscore>  (1) 
-6.89066653776115

>  <r_i_glide_emodel>  (1) 
-44.6041799582921

>  <index_string>  (1) 
33:0:0

$$$$
