14:0:0
     RDKit          3D

 64 68  0  0  1  0  0  0  0  0999 V2000
    5.5990   -0.6120   16.5260 C   0  0  0  0  0  0  0  0  0  0  0  0
    4.2740   -0.8840   16.4230 N   0  0  0  0  0  0  0  0  0  0  0  0
    3.8930   -0.1920   15.3360 C   0  0  0  0  0  0  0  0  0  0  0  0
    2.6150   -0.1350   14.7880 C   0  0  0  0  0  0  0  0  0  0  0  0
    1.5180   -0.8330   15.3940 N   0  0  0  0  0  0  0  0  0  0  0  0
    2.4360    0.6430   13.6810 N   0  0  0  0  0  0  0  0  0  0  0  0
    3.4630    1.3380   13.0990 C   0  0  0  0  0  0  0  0  0  0  0  0
    4.7490    1.2540   13.6650 C   0  0  0  0  0  0  0  0  0  0  0  0
    4.8980    0.4830   14.7690 N   0  0  0  0  0  0  0  0  0  0  0  0
    5.9960    0.2400   15.4970 C   0  0  0  0  0  0  0  0  0  0  0  0
    0.2320   -1.0390   14.7940 C   0  0  0  0  0  0  0  0  0  0  0  0
   -0.3900   -2.2820   14.9290 C   0  0  0  0  0  0  0  0  0  0  0  0
   -1.6380   -2.5140   14.3460 C   0  0  0  0  0  0  0  0  0  0  0  0
   -2.2770   -1.5050   13.6070 C   0  0  0  0  0  0  0  0  0  0  0  0
   -1.6480   -0.2620   13.4450 C   0  0  0  0  0  0  0  0  0  0  0  0
   -0.3980   -0.0380   14.0430 C   0  0  0  0  0  0  0  0  0  0  0  0
   -3.5300   -1.7170   13.0210 O   0  0  0  0  0  0  0  0  0  0  0  0
   -4.1660   -2.9870   13.0030 C   0  0  0  0  0  0  0  0  0  0  0  0
   -2.2760    0.7320   12.6860 O   0  0  0  0  0  0  0  0  0  0  0  0
   -1.7630    1.1880   11.4420 C   0  0  0  0  0  0  0  0  0  0  0  0
    3.1970    2.1660   11.9040 C   0  0  0  0  0  0  0  0  0  0  0  0
    4.2210    2.5030   11.0060 C   0  0  0  0  0  0  0  0  0  0  0  0
    3.9420    3.2860    9.8820 C   0  0  0  0  0  0  0  0  0  0  0  0
    2.6400    3.7410    9.6490 C   0  0  0  0  0  0  0  0  0  0  0  0
    1.6090    3.4160   10.5400 C   0  0  0  0  0  0  0  0  0  0  0  0
    1.8970    2.6300   11.6610 C   0  0  0  0  0  0  0  0  0  0  0  0
    0.2340    3.8910   10.3110 C   0  0  0  0  0  0  0  0  0  0  0  0
   -0.3780    3.5640    9.2580 O   0  0  0  0  0  0  0  0  0  0  0  0
   -0.3940    4.7320   11.2910 N   0  0  0  0  0  0  0  0  0  0  0  0
   -1.7470    5.2030   11.2890 C   0  0  0  0  0  0  0  0  0  0  0  0
   -2.1650    6.2630   10.4700 C   0  0  0  0  0  0  0  0  0  0  0  0
   -3.4990    6.6820   10.4840 C   0  0  0  0  0  0  0  0  0  0  0  0
   -4.4240    6.0460   11.3180 C   0  0  0  0  0  0  0  0  0  0  0  0
   -4.0140    4.9850   12.1310 C   0  0  0  0  0  0  0  0  0  0  0  0
   -2.6810    4.5670   12.1160 C   0  0  0  0  0  0  0  0  0  0  0  0
   -5.8500    6.4790   11.3180 C   0  0  0  0  0  0  0  0  0  0  0  0
   -6.5490    5.9780   12.5350 C   0  0  0  0  0  0  0  0  0  0  0  0
   -6.3170    6.5050   13.6550 O   0  0  0  0  0  0  0  0  0  0  0  0
   -7.4830    4.9570   12.4300 O   0  0  0  0  0  0  0  0  0  0  0  0
    6.2638   -1.0068   17.3084 H   0  0  0  0  0  0  0  0  0  0  0  0
    1.6663   -1.2179   16.3378 H   0  0  0  0  0  0  0  0  0  0  0  0
    5.6013    1.7943   13.2272 H   0  0  0  0  0  0  0  0  0  0  0  0
    7.0075    0.6337   15.3185 H   0  0  0  0  0  0  0  0  0  0  0  0
    0.1055   -3.0828   15.4975 H   0  0  0  0  0  0  0  0  0  0  0  0
   -2.1236   -3.4936   14.4665 H   0  0  0  0  0  0  0  0  0  0  0  0
    0.0943    0.9380   13.9202 H   0  0  0  0  0  0  0  0  0  0  0  0
   -4.3361   -3.3266   14.0354 H   0  0  0  0  0  0  0  0  0  0  0  0
   -5.1303   -2.9068   12.4798 H   0  0  0  0  0  0  0  0  0  0  0  0
   -3.5242   -3.7111   12.4798 H   0  0  0  0  0  0  0  0  0  0  0  0
   -0.9519    1.9090   11.6220 H   0  0  0  0  0  0  0  0  0  0  0  0
   -1.3733    0.3328   10.8705 H   0  0  0  0  0  0  0  0  0  0  0  0
   -2.5666    1.6753   10.8705 H   0  0  0  0  0  0  0  0  0  0  0  0
    5.2469    2.1499   11.1870 H   0  0  0  0  0  0  0  0  0  0  0  0
    4.7479    3.5448    9.1795 H   0  0  0  0  0  0  0  0  0  0  0  0
    2.4249    4.3563    8.7629 H   0  0  0  0  0  0  0  0  0  0  0  0
    1.0902    2.3721   12.3629 H   0  0  0  0  0  0  0  0  0  0  0  0
    0.1933    5.0296   12.0831 H   0  0  0  0  0  0  0  0  0  0  0  0
   -1.4399    6.7667    9.8139 H   0  0  0  0  0  0  0  0  0  0  0  0
   -3.8210    7.5125    9.8385 H   0  0  0  0  0  0  0  0  0  0  0  0
   -4.7414    4.4791   12.7828 H   0  0  0  0  0  0  0  0  0  0  0  0
   -2.3630    3.7325   12.7583 H   0  0  0  0  0  0  0  0  0  0  0  0
   -5.8943    7.5780   11.3020 H   0  0  0  0  0  0  0  0  0  0  0  0
   -6.3467    6.0658   10.4277 H   0  0  0  0  0  0  0  0  0  0  0  0
   -6.7809    6.1728   14.4640 H   0  0  0  0  0  0  0  0  0  0  0  0
  1  2  1  0
  1 10  2  0
  2  3  2  0
  3  4  1  0
  3  9  1  0
  4  5  1  0
  4  6  2  0
  5 11  1  0
  6  7  1  0
  7  8  2  0
  7 21  1  0
  8  9  1  0
  9 10  1  0
 11 12  2  0
 11 16  1  0
 12 13  1  0
 13 14  2  0
 14 15  1  0
 14 17  1  0
 15 16  2  0
 15 19  1  0
 17 18  1  0
 19 20  1  0
 21 22  2  0
 21 26  1  0
 22 23  1  0
 23 24  2  0
 24 25  1  0
 25 26  2  0
 25 27  1  0
 27 29  1  0
 27 28  2  0
 29 30  1  0
 30 35  1  0
 30 31  2  0
 31 32  1  0
 32 33  2  0
 33 34  1  0
 33 36  1  0
 34 35  2  0
 36 37  1  0
 37 38  1  0
 37 39  2  0
  1 40  1  0
  5 41  1  0
  8 42  1  0
 10 43  1  0
 12 44  1  0
 13 45  1  0
 16 46  1  0
 18 47  1  0
 18 48  1  0
 18 49  1  0
 20 50  1  0
 20 51  1  0
 20 52  1  0
 22 53  1  0
 23 54  1  0
 24 55  1  0
 26 56  1  0
 29 57  1  0
 31 58  1  0
 32 59  1  0
 34 60  1  0
 35 61  1  0
 36 62  1  0
 36 63  1  0
 38 64  1  0
M  END
>  <s_m_entry_id>  (1) 
15

>  <MODEL>  (1) 
1

>  <REMARK>  (1) 
 VINA RESULT:   -10.038      0.000      0.000
 INTER + INTRA:         -15.817
 INTER:                 -14.732
 INTRA:                  -1.086
 UNBOUND:                -1.086
  Name = /scratch/kmzp800/tmpfqynkbqs/tmpbhfabthb.pdb
  10 active torsions:
  status: ('A' for Active; 'I' for Inactive)
    1  A    between atoms: N2_5  and  C4_6
    2  A    between atoms: C7_9  and  O1_10
    3  A    between atoms: O1_10  and  C8_11
    4  A    between atoms: C9_12  and  O2_13
    5  A    between atoms: O2_13  and  C10_14
    6  A    between atoms: C12_17  and  C13_18
    7  A    between atoms: C17_22  and  C18_23
    8  A    between atoms: N4_25  and  C19_26
    9  A    between atoms: C22_29  and  C23_30
   10  A    between atoms: C23_30  and  C24_31
                            x       y       z     vdW  Elec       q    Type
                         _______ _______ _______ _____ _____    ______ ____

>  <TORSDO>  (1) 
F 8

>  <grid_id>  (1) 
syk-prepared

>  <grid_path>  (1) 
syk_vina.pdbqt

>  <grid_filename>  (1) 
syk_vina.pdbqt

>  <docking_score>  (1) 
-10.038

>  <compound_name>  (1) 
CHEMBL3264998

>  <index_string>  (1) 
14:0:0

>  <s_m_Source_Path>  (1) 
/projects/mai/users/kmzp800_harry/pmx_colab/docking_jobs/syk/vina_prep/output

>  <s_m_Source_File>  (1) 
ptp1b_docked_conformers.sdf

>  <i_m_Source_File_Index>  (1) 
15

$$$$
