16:0:0
     RDKit          3D

 42 45  0  0  1  0  0  0  0  0999 V2000
  -14.5020  -14.8680  -27.4280 C   0  0  0  0  0  0  0  0  0  0  0  0
  -14.9830  -15.7040  -26.4090 C   0  0  0  0  0  0  0  0  0  0  0  0
  -14.6670  -13.4880  -27.3160 C   0  0  0  0  0  0  0  0  0  0  0  0
  -15.6510  -15.1500  -25.3080 C   0  0  0  0  0  0  0  0  0  0  0  0
  -14.7860  -17.0940  -26.4970 N   0  0  0  0  0  0  0  0  0  0  0  0
  -15.3160  -12.9390  -26.2080 C   0  0  0  0  0  0  0  0  0  0  0  0
  -15.8170  -13.7660  -25.2000 C   0  0  0  0  0  0  0  0  0  0  0  0
  -16.1930  -16.0890  -24.2510 C   0  0  0  0  0  0  0  0  0  0  0  0
  -15.8730  -17.3880  -24.5070 N   0  0  0  0  0  0  0  0  0  0  0  0
  -16.8750  -15.7670  -23.2780 O   0  0  0  0  0  0  0  0  0  0  0  0
  -15.2060  -17.9200  -25.5960 C   0  0  0  0  0  0  0  0  0  0  0  0
  -13.8620  -15.3770  -28.5080 F   0  0  0  0  0  0  0  0  0  0  0  0
  -15.4660  -11.6000  -26.1150 F   0  0  0  0  0  0  0  0  0  0  0  0
  -15.0370  -19.3890  -25.7210 C   0  0  0  0  0  0  0  0  0  0  0  0
  -14.9650  -19.9620  -26.9980 C   0  0  0  0  0  0  0  0  0  0  0  0
  -14.8240  -21.3330  -27.1590 C   0  0  0  0  0  0  0  0  0  0  0  0
  -14.7360  -22.1740  -26.0460 C   0  0  0  0  0  0  0  0  0  0  0  0
  -14.8010  -21.6100  -24.7670 C   0  0  0  0  0  0  0  0  0  0  0  0
  -14.9640  -20.2350  -24.6040 C   0  0  0  0  0  0  0  0  0  0  0  0
  -14.6380  -23.6830  -26.2140 C   0  0  0  0  0  0  0  0  0  0  0  0
  -13.2560  -24.0770  -26.7500 C   0  0  0  0  0  0  0  0  0  0  0  0
  -13.1890  -25.5880  -27.0400 C   0  0  0  0  0  0  0  0  0  0  0  0
  -14.2290  -25.9590  -28.0000 N   0  0  0  0  0  0  0  0  0  0  0  0
  -15.5550  -25.6960  -27.4430 C   0  0  0  0  0  0  0  0  0  0  0  0
  -15.7240  -24.1900  -27.1710 C   0  0  0  0  0  0  0  0  0  0  0  0
  -14.2830  -12.8266  -28.1066 H   0  0  0  0  0  0  0  0  0  0  0  0
  -16.3359  -13.3336  -24.3318 H   0  0  0  0  0  0  0  0  0  0  0  0
  -16.1682  -18.0676  -23.7915 H   0  0  0  0  0  0  0  0  0  0  0  0
  -15.0211  -19.3152  -27.8860 H   0  0  0  0  0  0  0  0  0  0  0  0
  -14.7811  -21.7617  -28.1711 H   0  0  0  0  0  0  0  0  0  0  0  0
  -14.7227  -22.2579  -23.8815 H   0  0  0  0  0  0  0  0  0  0  0  0
  -15.0359  -19.8101  -23.5919 H   0  0  0  0  0  0  0  0  0  0  0  0
  -14.7850  -24.1455  -25.2268 H   0  0  0  0  0  0  0  0  0  0  0  0
  -13.0589  -23.5228  -27.6796 H   0  0  0  0  0  0  0  0  0  0  0  0
  -12.5009  -23.8316  -25.9887 H   0  0  0  0  0  0  0  0  0  0  0  0
  -12.2021  -25.8354  -27.4581 H   0  0  0  0  0  0  0  0  0  0  0  0
  -13.3468  -26.1431  -26.1036 H   0  0  0  0  0  0  0  0  0  0  0  0
  -14.1075  -25.4079  -28.8616 H   0  0  0  0  0  0  0  0  0  0  0  0
  -16.3225  -26.0250  -28.1591 H   0  0  0  0  0  0  0  0  0  0  0  0
  -15.6649  -26.2477  -26.4977 H   0  0  0  0  0  0  0  0  0  0  0  0
  -16.7120  -24.0137  -26.7208 H   0  0  0  0  0  0  0  0  0  0  0  0
  -15.6346  -23.6479  -28.1240 H   0  0  0  0  0  0  0  0  0  0  0  0
  1  3  2  0
  1  2  1  0
  1 12  1  0
  2  4  2  0
  2  5  1  0
  3  6  1  0
  4  7  1  0
  4  8  1  0
  5 11  2  0
  6 13  1  0
  6  7  2  0
  8 10  2  0
  8  9  1  0
  9 11  1  0
 11 14  1  0
 14 19  1  0
 14 15  2  0
 15 16  1  0
 16 17  2  0
 17 18  1  0
 17 20  1  0
 18 19  2  0
 20 21  1  0
 20 25  1  0
 21 22  1  0
 22 23  1  0
 23 24  1  0
 24 25  1  0
  3 26  1  0
  7 27  1  0
  9 28  1  0
 15 29  1  0
 16 30  1  0
 18 31  1  0
 19 32  1  0
 20 33  1  0
 21 34  1  0
 21 35  1  0
 22 36  1  0
 22 37  1  0
 23 38  1  0
 24 39  1  0
 24 40  1  0
 25 41  1  0
 25 42  1  0
M  END
>  <s_m_entry_id>  (1) 
2472

>  <MODEL>  (1) 
1

>  <REMARK>  (1) 
 VINA RESULT:   -12.458      0.000      0.000
 INTER + INTRA:         -14.414
 INTER:                 -13.926
 INTRA:                  -0.488
 UNBOUND:                -0.499
  Name = 8c
  2 active torsions:
  status: ('A' for Active; 'I' for Inactive)
    1  A    between atoms: C_11  and  C_12
    2  A    between atoms: C_15  and  C_20
                            x       y       z     vdW  Elec       q    Type
                         _______ _______ _______ _____ _____    ______ ____

>  <TORSDO>  (1) 
F 2

>  <s_m_Source_Path>  (1) 
/projects/mai/users/kmzp800_harry/pmx_colab/docking_jobs/tnks2/vina_prep/output_mcs

>  <s_m_Source_File>  (1) 
tnks_mcs_vina__all_poses.sdf

>  <i_m_Source_File_Index>  (1) 
90

>  <index_string>  (1) 
16:0:0

$$$$
