29:0:0
     RDKit          3D

 46 49  0  0  1  0  0  0  0  0999 V2000
   36.1980   35.9492   16.7572 C   0  0  0  0  0  0  0  0  0  0  0  0
   37.2654   36.3585   15.9456 C   0  0  0  0  0  0  0  0  0  0  0  0
   37.0378   36.7496   14.6891 F   0  0  0  0  0  0  0  0  0  0  0  0
   38.5519   36.5145   16.4685 C   0  0  0  0  0  0  0  0  0  0  0  0
   38.7652   36.3390   17.8413 C   0  0  0  0  0  0  0  0  0  0  0  0
   37.7013   35.9600   18.6777 C   0  0  0  0  0  0  0  0  0  0  0  0
   36.4115   35.7623   18.1322 C   0  0  0  0  0  0  0  0  0  0  0  0
   35.3968   35.2510   18.8955 O   0  0  0  0  0  0  0  0  0  0  0  0
   35.1447   35.8191   20.1118 C   0  0  0  0  0  0  0  0  0  0  0  0
   35.2356   37.1591   20.2658 C   0  0  0  0  0  0  0  0  0  0  0  0
   34.5505   34.9792   21.1476 C   0  0  0  0  0  0  0  0  0  0  0  0
   34.3190   33.7884   20.9422 O   0  0  0  0  0  0  0  0  0  0  0  0
   34.2482   35.5891   22.3310 N   0  0  0  0  0  0  0  0  0  0  0  0
   33.7356   34.7614   23.4346 C   0  0  0  0  0  0  0  0  0  0  0  0
   34.3304   37.0133   22.5397 C   0  0  0  0  0  0  0  0  0  0  0  0
   34.8175   37.8120   21.4867 C   0  0  0  0  0  0  0  0  0  0  0  0
   33.9449   37.6144   23.6894 N   0  0  0  0  0  0  0  0  0  0  0  0
   34.0270   38.9453   23.7709 C   0  0  0  0  0  0  0  0  0  0  0  0
   34.4626   39.7752   22.8244 N   0  0  0  0  0  0  0  0  0  0  0  0
   34.8571   39.2057   21.6692 C   0  0  0  0  0  0  0  0  0  0  0  0
   33.6183   39.5494   24.9418 N   0  0  0  0  0  0  0  0  0  0  0  0
   33.0676   38.8797   26.1134 C   0  0  0  0  0  0  0  0  0  0  0  0
   33.1032   39.8187   27.3293 C   0  0  0  0  0  0  0  0  0  0  0  0
   32.4740   39.1408   28.5552 C   0  0  0  0  0  0  0  0  0  0  0  0
   31.1410   38.7450   28.2548 O   0  0  0  0  0  0  0  0  0  0  0  0
   31.0605   37.7989   27.1948 C   0  0  0  0  0  0  0  0  0  0  0  0
   31.6156   38.4151   25.8989 C   0  0  0  0  0  0  0  0  0  0  0  0
   35.2159   35.8088   16.3319 H   0  0  0  0  0  0  0  0  0  0  0  0
   39.3517   36.8434   15.8278 H   0  0  0  0  0  0  0  0  0  0  0  0
   39.7610   36.4249   18.2452 H   0  0  0  0  0  0  0  0  0  0  0  0
   37.8880   35.7826   19.7270 H   0  0  0  0  0  0  0  0  0  0  0  0
   35.5841   37.8003   19.4690 H   0  0  0  0  0  0  0  0  0  0  0  0
   34.0025   35.1701   24.4090 H   0  0  0  0  0  0  0  0  0  0  0  0
   32.6484   34.7019   23.3822 H   0  0  0  0  0  0  0  0  0  0  0  0
   34.1311   33.7438   23.4228 H   0  0  0  0  0  0  0  0  0  0  0  0
   35.2133   39.8660   20.8933 H   0  0  0  0  0  0  0  0  0  0  0  0
   33.7519   40.5512   25.0131 H   0  0  0  0  0  0  0  0  0  0  0  0
   33.6894   38.0094   26.3298 H   0  0  0  0  0  0  0  0  0  0  0  0
   34.1285   40.1158   27.5525 H   0  0  0  0  0  0  0  0  0  0  0  0
   32.5520   40.7354   27.1106 H   0  0  0  0  0  0  0  0  0  0  0  0
   33.0610   38.2760   28.8675 H   0  0  0  0  0  0  0  0  0  0  0  0
   32.4525   39.8344   29.3960 H   0  0  0  0  0  0  0  0  0  0  0  0
   31.6077   36.8930   27.4600 H   0  0  0  0  0  0  0  0  0  0  0  0
   30.0181   37.5106   27.0660 H   0  0  0  0  0  0  0  0  0  0  0  0
   30.9905   39.2591   25.6035 H   0  0  0  0  0  0  0  0  0  0  0  0
   31.5574   37.6847   25.0915 H   0  0  0  0  0  0  0  0  0  0  0  0
  1  7  2  0
  1  2  1  0
  1 28  1  0
  2  3  1  0
  2  4  2  0
  4  5  1  0
  4 29  1  0
  5  6  2  0
  5 30  1  0
  6  7  1  0
  6 31  1  0
  7  8  1  0
  8  9  1  0
  9 10  2  0
  9 11  1  0
 10 16  1  0
 10 32  1  0
 11 12  2  0
 11 13  1  0
 13 14  1  0
 13 15  1  0
 14 33  1  0
 14 34  1  0
 14 35  1  0
 15 16  2  0
 15 17  1  0
 16 20  1  0
 17 18  2  0
 18 19  1  0
 18 21  1  0
 19 20  2  0
 20 36  1  0
 21 22  1  0
 21 37  1  0
 22 27  1  0
 22 23  1  0
 22 38  1  0
 23 24  1  0
 23 39  1  0
 23 40  1  0
 24 25  1  0
 24 41  1  0
 24 42  1  0
 25 26  1  0
 26 27  1  0
 26 43  1  0
 26 44  1  0
 27 45  1  0
 27 46  1  0
M  END
>  <s_m_entry_id>  (1) 
256

>  <i_f3d_flags>  (1) 
0

>  <r_lp_tautomer_probability>  (1) 
1

>  <r_epik_Ionization_Penalty>  (1) 
  0.0000

>  <r_epik_State_Penalty>  (1) 
  0.0000

>  <i_epik_Tot_Q>  (1) 
0

>  <s_m_job_name>  (1) 
glide-dock_SP_p38_core_cons_top_1

>  <r_i_docking_score>  (1) 
-7.11367331365001

>  <r_i_glide_gscore>  (1) 
-7.11367331365001

>  <r_i_glide_emodel>  (1) 
-34.7674897611708

>  <index_string>  (1) 
29:0:0

$$$$
