7:0:0
     RDKit          3D

 47 49  0  0  1  0  0  0  0  0999 V2000
   32.0670   35.7851   28.1966 O   0  0  0  0  0  0  0  0  0  0  0  0
   31.4560   36.7793   27.3032 S   0  0  0  0  0  0  0  0  0  0  0  0
   30.5590   36.3329   26.2275 O   0  0  0  0  0  0  0  0  0  0  0  0
   30.5524   37.9880   28.3413 C   0  0  0  0  0  0  0  0  0  0  0  0
   32.8288   37.7877   26.5711 C   0  0  0  0  0  0  0  0  0  0  0  0
   32.4227   39.0285   25.7202 C   0  0  0  0  0  0  0  0  0  0  0  0
   31.1565   38.8962   24.8484 C   0  0  0  0  0  0  0  0  0  0  0  0
   33.5464   39.5493   24.9303 N   0  0  0  0  0  0  0  0  0  0  0  0
   33.9984   38.9842   23.7473 C   0  0  0  0  0  0  0  0  0  0  0  0
   34.4874   39.8106   22.8190 N   0  0  0  0  0  0  0  0  0  0  0  0
   34.8739   39.2439   21.6479 C   0  0  0  0  0  0  0  0  0  0  0  0
   33.8883   37.6661   23.6376 N   0  0  0  0  0  0  0  0  0  0  0  0
   34.2897   37.0669   22.4999 C   0  0  0  0  0  0  0  0  0  0  0  0
   34.8152   37.8491   21.4506 C   0  0  0  0  0  0  0  0  0  0  0  0
   34.1929   35.6469   22.3313 N   0  0  0  0  0  0  0  0  0  0  0  0
   33.6241   34.8709   23.4451 C   0  0  0  0  0  0  0  0  0  0  0  0
   34.5539   35.0059   21.1842 C   0  0  0  0  0  0  0  0  0  0  0  0
   34.3593   33.8049   21.0065 O   0  0  0  0  0  0  0  0  0  0  0  0
   35.1724   35.8288   20.1408 C   0  0  0  0  0  0  0  0  0  0  0  0
   35.2750   37.1703   20.2450 C   0  0  0  0  0  0  0  0  0  0  0  0
   35.6502   35.2260   19.0243 O   0  0  0  0  0  0  0  0  0  0  0  0
   34.8816   35.2529   17.8900 C   0  0  0  0  0  0  0  0  0  0  0  0
   35.5660   35.1493   16.6648 C   0  0  0  0  0  0  0  0  0  0  0  0
   34.8464   34.8779   15.4900 C   0  0  0  0  0  0  0  0  0  0  0  0
   33.4625   35.2933   17.8866 C   0  0  0  0  0  0  0  0  0  0  0  0
   32.7338   35.4755   19.0134 F   0  0  0  0  0  0  0  0  0  0  0  0
   32.7715   35.1492   16.6764 C   0  0  0  0  0  0  0  0  0  0  0  0
   33.4456   34.8668   15.4891 C   0  0  0  0  0  0  0  0  0  0  0  0
   32.7481   34.6001   14.3608 F   0  0  0  0  0  0  0  0  0  0  0  0
   32.1962   39.8228   26.4349 H   0  0  0  0  0  0  0  0  0  0  0  0
   29.7272   37.4808   28.8416 H   0  0  0  0  0  0  0  0  0  0  0  0
   30.1523   38.7692   27.7075 H   0  0  0  0  0  0  0  0  0  0  0  0
   31.2237   38.4146   29.0844 H   0  0  0  0  0  0  0  0  0  0  0  0
   33.4836   38.0935   27.3847 H   0  0  0  0  0  0  0  0  0  0  0  0
   33.4025   37.0745   25.9856 H   0  0  0  0  0  0  0  0  0  0  0  0
   30.2570   38.7461   25.4424 H   0  0  0  0  0  0  0  0  0  0  0  0
   30.9864   39.8064   24.2737 H   0  0  0  0  0  0  0  0  0  0  0  0
   31.2275   38.0640   24.1481 H   0  0  0  0  0  0  0  0  0  0  0  0
   33.7283   40.5409   25.0417 H   0  0  0  0  0  0  0  0  0  0  0  0
   35.2666   39.9018   20.8877 H   0  0  0  0  0  0  0  0  0  0  0  0
   33.7094   33.7896   23.3381 H   0  0  0  0  0  0  0  0  0  0  0  0
   34.1242   35.1251   24.3796 H   0  0  0  0  0  0  0  0  0  0  0  0
   32.5661   35.1100   23.5597 H   0  0  0  0  0  0  0  0  0  0  0  0
   35.7284   37.7604   19.4616 H   0  0  0  0  0  0  0  0  0  0  0  0
   36.6481   35.1498   16.6463 H   0  0  0  0  0  0  0  0  0  0  0  0
   35.3525   34.6630   14.5752 H   0  0  0  0  0  0  0  0  0  0  0  0
   31.6953   35.1550   16.6895 H   0  0  0  0  0  0  0  0  0  0  0  0
  1  2  2  0
  2  3  2  0
  2  4  1  0
  2  5  1  0
  4 31  1  0
  4 32  1  0
  4 33  1  0
  5  6  1  0
  5 34  1  0
  5 35  1  0
  6 30  1  0
  6  7  1  0
  6  8  1  0
  7 36  1  0
  7 37  1  0
  7 38  1  0
  8  9  1  0
  8 39  1  0
  9 10  2  0
  9 12  1  0
 10 11  1  0
 11 14  2  0
 11 40  1  0
 12 13  2  0
 13 14  1  0
 13 15  1  0
 14 20  1  0
 15 16  1  0
 15 17  1  0
 16 41  1  0
 16 42  1  0
 16 43  1  0
 17 18  2  0
 17 19  1  0
 19 20  2  0
 19 21  1  0
 20 44  1  0
 21 22  1  0
 22 23  2  0
 22 25  1  0
 23 24  1  0
 23 45  1  0
 24 28  2  0
 24 46  1  0
 25 26  1  0
 25 27  2  0
 27 28  1  0
 27 47  1  0
 28 29  1  0
M  END
>  <s_m_entry_id>  (1) 
281

>  <i_f3d_flags>  (1) 
0

>  <r_lp_tautomer_probability>  (1) 
1

>  <r_epik_Ionization_Penalty>  (1) 
  0.0000

>  <r_epik_State_Penalty>  (1) 
  0.0000

>  <i_epik_Tot_Q>  (1) 
0

>  <s_m_job_name>  (1) 
glide-dock_SP_p38_core_cons_top_1

>  <r_i_docking_score>  (1) 
-6.25269713981658

>  <r_i_glide_gscore>  (1) 
-6.25269713981658

>  <r_i_glide_emodel>  (1) 
-45.7856031251728

>  <index_string>  (1) 
7:0:0

$$$$
