28:0:0
     RDKit          3D

 55 58  0  0  1  0  0  0  0  0999 V2000
   33.5680   36.0170   20.1100 C   0  0  0  0  0  0  0  0  0  0  0  0
   33.5710   37.4010   20.2670 C   0  0  0  0  0  0  0  0  0  0  0  0
   33.3720   37.9570   21.5240 C   0  0  0  0  0  0  0  0  0  0  0  0
   33.3600   39.3360   21.7090 C   0  0  0  0  0  0  0  0  0  0  0  0
   33.1530   39.8490   22.9500 N   0  0  0  0  0  0  0  0  0  0  0  0
   32.9560   39.0340   24.0210 C   0  0  0  0  0  0  0  0  0  0  0  0
   32.7270   39.6070   25.3110 N   0  0  0  0  0  0  0  0  0  0  0  0
   32.9680   37.6840   23.8570 N   0  0  0  0  0  0  0  0  0  0  0  0
   33.1710   37.1200   22.6340 C   0  0  0  0  0  0  0  0  0  0  0  0
   33.1790   35.7580   22.4800 N   0  0  0  0  0  0  0  0  0  0  0  0
   33.4010   35.1970   21.2470 C   0  0  0  0  0  0  0  0  0  0  0  0
   33.4770   33.9420   21.1280 O   0  0  0  0  0  0  0  0  0  0  0  0
   32.4930   38.7980   26.4970 C   0  0  0  0  0  0  0  0  0  0  0  0
   32.7490   39.6190   27.7680 C   0  0  0  0  0  0  0  0  0  0  0  0
   32.1240   38.9550   29.0050 C   0  0  0  0  0  0  0  0  0  0  0  0
   31.7230   37.6350   28.7340 O   0  0  0  0  0  0  0  0  0  0  0  0
   30.6310   37.7320   27.8530 C   0  0  0  0  0  0  0  0  0  0  0  0
   31.0720   38.2290   26.4670 C   0  0  0  0  0  0  0  0  0  0  0  0
   33.7720   35.4910   18.8260 O   0  0  0  0  0  0  0  0  0  0  0  0
   37.3610   35.9610   18.0980 C   0  0  0  0  0  0  0  0  0  0  0  0
   36.1510   35.8450   18.7840 C   0  0  0  0  0  0  0  0  0  0  0  0
   34.9620   35.5900   18.0910 C   0  0  0  0  0  0  0  0  0  0  0  0
   34.9930   35.4820   16.6850 C   0  0  0  0  0  0  0  0  0  0  0  0
   33.8560   35.3040   15.9690 F   0  0  0  0  0  0  0  0  0  0  0  0
   36.2080   35.5990   16.0020 C   0  0  0  0  0  0  0  0  0  0  0  0
   37.3920   35.8310   16.7070 C   0  0  0  0  0  0  0  0  0  0  0  0
   38.5660   35.9420   16.0420 F   0  0  0  0  0  0  0  0  0  0  0  0
   32.9840   34.9000   23.6510 C   0  0  0  0  0  0  0  0  0  0  0  0
   31.5060   34.7870   24.0180 C   0  0  0  0  0  0  0  0  0  0  0  0
   30.7820   33.2730   23.4100 S   0  0  0  0  0  6  0  0  0  0  0  0
   30.1240   33.5460   22.0870 O   0  0  0  0  0  0  0  0  0  0  0  0
   31.8490   32.2310   23.2250 O   0  0  0  0  0  0  0  0  0  0  0  0
   29.5550   32.6760   24.5490 C   0  0  0  0  0  0  0  0  0  0  0  0
   33.7309   38.0533   19.3958 H   0  0  0  0  0  0  0  0  0  0  0  0
   33.5176   40.0088   20.8532 H   0  0  0  0  0  0  0  0  0  0  0  0
   32.7278   40.6328   25.4040 H   0  0  0  0  0  0  0  0  0  0  0  0
   33.1978   37.9535   26.5049 H   0  0  0  0  0  0  0  0  0  0  0  0
   33.8344   39.7101   27.9217 H   0  0  0  0  0  0  0  0  0  0  0  0
   32.2866   40.6085   27.6377 H   0  0  0  0  0  0  0  0  0  0  0  0
   32.8654   38.9437   29.8175 H   0  0  0  0  0  0  0  0  0  0  0  0
   31.2343   39.5334   29.2947 H   0  0  0  0  0  0  0  0  0  0  0  0
   30.1674   36.7401   27.7469 H   0  0  0  0  0  0  0  0  0  0  0  0
   29.9138   38.4552   28.2684 H   0  0  0  0  0  0  0  0  0  0  0  0
   30.3796   39.0158   26.1332 H   0  0  0  0  0  0  0  0  0  0  0  0
   31.0588   37.3739   25.7751 H   0  0  0  0  0  0  0  0  0  0  0  0
   38.2909   36.1549   18.6527 H   0  0  0  0  0  0  0  0  0  0  0  0
   36.1317   35.9549   19.8783 H   0  0  0  0  0  0  0  0  0  0  0  0
   36.2316   35.5081   14.9060 H   0  0  0  0  0  0  0  0  0  0  0  0
   33.3755   33.8963   23.4287 H   0  0  0  0  0  0  0  0  0  0  0  0
   33.5190   35.3476   24.5015 H   0  0  0  0  0  0  0  0  0  0  0  0
   31.4088   34.8127   25.1134 H   0  0  0  0  0  0  0  0  0  0  0  0
   30.9741   35.6298   23.5524 H   0  0  0  0  0  0  0  0  0  0  0  0
   29.8995   32.8436   25.5801 H   0  0  0  0  0  0  0  0  0  0  0  0
   28.6101   33.2151   24.3859 H   0  0  0  0  0  0  0  0  0  0  0  0
   29.3960   31.5998   24.3859 H   0  0  0  0  0  0  0  0  0  0  0  0
  1  2  2  0
  1 11  1  0
  1 19  1  0
  2  3  1  0
  3  4  2  0
  3  9  1  0
  4  5  1  0
  5  6  2  0
  6  7  1  0
  6  8  1  0
  7 13  1  0
  8  9  2  0
  9 10  1  0
 10 28  1  0
 10 11  1  0
 11 12  2  0
 13 14  1  0
 13 18  1  0
 14 15  1  0
 15 16  1  0
 16 17  1  0
 17 18  1  0
 19 22  1  0
 20 21  2  0
 20 26  1  0
 21 22  1  0
 22 23  2  0
 23 24  1  0
 23 25  1  0
 25 26  2  0
 26 27  1  0
 28 29  1  0
 29 30  1  0
 30 33  1  0
 30 31  2  0
 30 32  2  0
  2 34  1  0
  4 35  1  0
  7 36  1  0
 13 37  1  0
 14 38  1  0
 14 39  1  0
 15 40  1  0
 15 41  1  0
 17 42  1  0
 17 43  1  0
 18 44  1  0
 18 45  1  0
 20 46  1  0
 21 47  1  0
 25 48  1  0
 28 49  1  0
 28 50  1  0
 29 51  1  0
 29 52  1  0
 33 53  1  0
 33 54  1  0
 33 55  1  0
M  END
>  <s_m_entry_id>  (1) 
78

>  <MODEL>  (1) 
1

>  <REMARK>  (1) 
 VINA RESULT:   -10.764      0.000      0.000
 INTER + INTRA:         -12.690
 INTER:                 -11.865
 INTRA:                  -0.825
 UNBOUND:                 1.850
  Name = /scratch/kmzp800/tmp73dn64g7/tmpjtm2n1bp.pdb
  7 active torsions:
  status: ('A' for Active; 'I' for Inactive)
    1  A    between atoms: C3_3  and  O1_4
    2  A    between atoms: O1_4  and  C4_5
    3  A    between atoms: N2_11  and  C9_12
    4  A    between atoms: N4_20  and  C15_21
    5  A    between atoms: C15_21  and  C16_22
    6  A    between atoms: C16_22  and  S1_23
    7  A    between atoms: S1_23  and  C17_26
                            x       y       z     vdW  Elec       q    Type
                         _______ _______ _______ _____ _____    ______ ____

>  <TORSDO>  (1) 
F 6

>  <grid_id>  (1) 
p38-prepared

>  <grid_path>  (1) 
/projects/mai/users/kmzp800_harry/pmx_colab/docking_jobs/p38/vina_docking/input_files/p38_vina.pdbqt

>  <grid_filename>  (1) 
p38_vina.pdbqt

>  <docking_score>  (1) 
-10.764

>  <compound_name>  (1) 
lig_p38a_2o

>  <index_string>  (1) 
28:0:0

$$$$
