19:0:0
     RDKit          3D

 60 63  0  0  1  0  0  0  0  0999 V2000
   41.4021   17.4862   11.8013 O   0  0  0  0  0  0  0  0  0  0  0  0
   40.5838   17.3103   12.7348 C   0  0  0  0  0  0  0  0  0  0  0  0
   39.4748   17.8863   12.8116 O   0  0  0  0  0  0  0  0  0  0  0  0
   40.9286   16.3307   13.8676 C   0  0  0  0  0  0  0  0  0  0  0  0
   42.1914   15.7003   13.6847 O   0  0  0  0  0  0  0  0  0  0  0  0
   42.5451   14.8968   14.7167 C   0  0  0  0  0  0  0  0  0  0  0  0
   42.1537   13.5402   14.8529 C   0  0  0  0  0  0  0  0  0  0  0  0
   42.6202   12.9184   15.9804 C   0  0  0  0  0  0  0  0  0  0  0  0
   43.6088   13.9914   16.9143 S   0  0  0  0  0  0  0  0  0  0  0  0
   43.3326   15.2877   15.7654 C   0  0  0  0  0  0  0  0  0  0  0  0
   43.9323   16.5777   16.0832 C   0  0  0  0  0  0  0  0  0  0  0  0
   44.5833   16.6861   17.1414 O   0  0  0  0  0  0  0  0  0  0  0  0
   43.7886   17.5369   15.2926 O   0  0  0  0  0  0  0  0  0  0  0  0
   42.3601   11.5693   16.4634 C   0  0  0  0  0  0  0  0  0  0  0  0
   43.3780   10.7865   17.0473 C   0  0  0  0  0  0  0  0  0  0  0  0
   43.1051    9.4813   17.4991 C   0  0  0  0  0  0  0  0  0  0  0  0
   41.8104    8.9438   17.3626 C   0  0  0  0  0  0  0  0  0  0  0  0
   40.7805    9.7171   16.7801 C   0  0  0  0  0  0  0  0  0  0  0  0
   41.0670   11.0234   16.3423 C   0  0  0  0  0  0  0  0  0  0  0  0
   39.4711    9.2496   16.6052 N   0  0  0  0  0  0  0  0  0  0  0  0
   38.9155    8.1663   17.4071 C   0  0  0  0  0  0  0  0  0  0  0  0
   38.8732    8.5129   18.9102 C   0  0  0  0  0  0  0  0  0  0  0  0
   38.2408    7.3670   19.7133 C   0  0  0  0  0  0  0  0  0  0  0  0
   36.8796    7.0940   19.2201 N   0  0  0  0  0  0  0  0  0  0  0  0
   36.8331    6.7441   17.7884 C   0  0  0  0  0  0  0  0  0  0  0  0
   37.4868    7.8452   16.9351 C   0  0  0  0  0  0  0  0  0  0  0  0
   35.5225    7.9052   19.9439 S   0  0  0  0  0  0  0  0  0  0  0  0
   35.9969    8.5749   21.1633 O   0  0  0  0  0  0  0  0  0  0  0  0
   34.8422    8.6814   18.8939 O   0  0  0  0  0  0  0  0  0  0  0  0
   34.4610    6.4894   20.4714 C   0  0  0  0  0  0  0  0  0  0  0  0
   33.5130    6.0551   19.3679 C   0  0  0  0  0  0  0  0  0  0  0  0
   33.8711    5.0045   18.4954 C   0  0  0  0  0  0  0  0  0  0  0  0
   32.9959    4.6071   17.4656 C   0  0  0  0  0  0  0  0  0  0  0  0
   31.7515    5.2485   17.3150 C   0  0  0  0  0  0  0  0  0  0  0  0
   31.3824    6.2835   18.1971 C   0  0  0  0  0  0  0  0  0  0  0  0
   32.2595    6.6864   19.2222 C   0  0  0  0  0  0  0  0  0  0  0  0
   40.9076   16.8733   14.8149 H   0  0  0  0  0  0  0  0  0  0  0  0
   40.1598   15.5596   13.9119 H   0  0  0  0  0  0  0  0  0  0  0  0
   41.5194   13.0655   14.1189 H   0  0  0  0  0  0  0  0  0  0  0  0
   44.3739   11.1869   17.1443 H   0  0  0  0  0  0  0  0  0  0  0  0
   43.8901    8.8883   17.9446 H   0  0  0  0  0  0  0  0  0  0  0  0
   41.6244    7.9368   17.7048 H   0  0  0  0  0  0  0  0  0  0  0  0
   40.2826   11.6184   15.8960 H   0  0  0  0  0  0  0  0  0  0  0  0
   38.8504    9.7697   16.0009 H   0  0  0  0  0  0  0  0  0  0  0  0
   39.5298    7.2772   17.2580 H   0  0  0  0  0  0  0  0  0  0  0  0
   39.8737    8.7037   19.2970 H   0  0  0  0  0  0  0  0  0  0  0  0
   38.3043    9.4298   19.0689 H   0  0  0  0  0  0  0  0  0  0  0  0
   38.8437    6.4643   19.6060 H   0  0  0  0  0  0  0  0  0  0  0  0
   38.2282    7.5960   20.7780 H   0  0  0  0  0  0  0  0  0  0  0  0
   37.3522    5.7975   17.6382 H   0  0  0  0  0  0  0  0  0  0  0  0
   35.8032    6.5941   17.4702 H   0  0  0  0  0  0  0  0  0  0  0  0
   36.8723    8.7450   16.9801 H   0  0  0  0  0  0  0  0  0  0  0  0
   37.5003    7.5352   15.8899 H   0  0  0  0  0  0  0  0  0  0  0  0
   35.1042    5.6728   20.8007 H   0  0  0  0  0  0  0  0  0  0  0  0
   33.8829    6.8169   21.3354 H   0  0  0  0  0  0  0  0  0  0  0  0
   34.8222    4.5046   18.6080 H   0  0  0  0  0  0  0  0  0  0  0  0
   33.2751    3.8057   16.7963 H   0  0  0  0  0  0  0  0  0  0  0  0
   31.0750    4.9416   16.5305 H   0  0  0  0  0  0  0  0  0  0  0  0
   30.4209    6.7660   18.0900 H   0  0  0  0  0  0  0  0  0  0  0  0
   31.9673    7.4841   19.8911 H   0  0  0  0  0  0  0  0  0  0  0  0
  1  2  2  0
  2  3  1  0
  2  4  1  0
  4  5  1  0
  4 37  1  0
  4 38  1  0
  5  6  1  0
  6 10  2  0
  6  7  1  0
  7  8  2  0
  7 39  1  0
  8  9  1  0
  8 14  1  0
  9 10  1  0
 10 11  1  0
 11 12  2  0
 11 13  1  0
 14 19  1  0
 14 15  2  0
 15 16  1  0
 15 40  1  0
 16 17  2  0
 16 41  1  0
 17 18  1  0
 17 42  1  0
 18 19  2  0
 18 20  1  0
 19 43  1  0
 20 21  1  0
 20 44  1  0
 21 26  1  0
 21 22  1  0
 21 45  1  0
 22 23  1  0
 22 46  1  0
 22 47  1  0
 23 24  1  0
 23 48  1  0
 23 49  1  0
 24 25  1  0
 24 27  1  0
 25 26  1  0
 25 50  1  0
 25 51  1  0
 26 52  1  0
 26 53  1  0
 27 28  2  0
 27 29  2  0
 27 30  1  0
 30 31  1  0
 30 54  1  0
 30 55  1  0
 31 36  1  0
 31 32  2  0
 32 33  1  0
 32 56  1  0
 33 34  2  0
 33 57  1  0
 34 35  1  0
 34 58  1  0
 35 36  2  0
 35 59  1  0
 36 60  1  0
M  CHG  2   3  -1  13  -1
M  END
>  <s_m_entry_id>  (1) 
494

>  <i_f3d_flags>  (1) 
0

>  <r_epik_Ionization_Penalty>  (1) 
  0.0005

>  <r_epik_State_Penalty>  (1) 
  0.0002

>  <i_epik_Tot_Q>  (1) 
-2

>  <s_m_job_name>  (1) 
glide-dock_SP_ptp1b_core_cons

>  <r_i_docking_score>  (1) 
-7.06706556311629

>  <r_i_glide_gscore>  (1) 
-7.06726556311629

>  <r_i_glide_emodel>  (1) 
-96.5830427699596

>  <index_string>  (1) 
19:0:0

$$$$
