15:0:0
     RDKit          3D

 39 41  0  0  1  0  0  0  0  0999 V2000
  -14.4444  -14.8338  -27.6862 C   0  0  0  0  0  0  0  0  0  0  0  0
  -15.0251  -15.6306  -26.6897 C   0  0  0  0  0  0  0  0  0  0  0  0
  -14.5286  -13.4381  -27.5926 C   0  0  0  0  0  0  0  0  0  0  0  0
  -15.7437  -15.0334  -25.6272 C   0  0  0  0  0  0  0  0  0  0  0  0
  -14.8482  -17.0132  -26.7549 N   0  0  0  0  0  0  0  0  0  0  0  0
  -15.2367  -12.8379  -26.5361 C   0  0  0  0  0  0  0  0  0  0  0  0
  -15.8537  -13.6334  -25.5531 C   0  0  0  0  0  0  0  0  0  0  0  0
  -16.3611  -15.9515  -24.6101 C   0  0  0  0  0  0  0  0  0  0  0  0
  -16.1066  -17.2510  -24.8195 N   0  0  0  0  0  0  0  0  0  0  0  0
  -17.0594  -15.5772  -23.6673 O   0  0  0  0  0  0  0  0  0  0  0  0
  -15.3580  -17.7968  -25.8562 C   0  0  0  0  0  0  0  0  0  0  0  0
  -15.1991  -19.2692  -25.9382 C   0  0  0  0  0  0  0  0  0  0  0  0
  -14.7815  -19.8479  -27.1397 C   0  0  0  0  0  0  0  0  0  0  0  0
  -14.5637  -21.2254  -27.2146 C   0  0  0  0  0  0  0  0  0  0  0  0
  -14.7773  -22.0599  -26.0975 C   0  0  0  0  0  0  0  0  0  0  0  0
  -15.2270  -21.4677  -24.9011 C   0  0  0  0  0  0  0  0  0  0  0  0
  -15.4393  -20.0862  -24.8180 C   0  0  0  0  0  0  0  0  0  0  0  0
  -15.3228  -11.5068  -26.4887 F   0  0  0  0  0  0  0  0  0  0  0  0
  -14.4853  -23.5717  -26.1454 C   0  0  0  0  0  0  0  0  0  0  0  0
  -13.2196  -23.8385  -25.2974 C   0  0  0  0  0  0  0  0  0  0  0  0
  -14.1946  -24.0838  -27.5585 C   0  0  0  0  0  0  0  0  0  0  0  0
  -15.7351  -24.3340  -25.6633 C   0  0  0  0  0  0  0  0  0  0  0  0
  -13.9046  -15.2809  -28.5076 H   0  0  0  0  0  0  0  0  0  0  0  0
  -14.0695  -12.8049  -28.3401 H   0  0  0  0  0  0  0  0  0  0  0  0
  -16.4061  -13.1651  -24.7485 H   0  0  0  0  0  0  0  0  0  0  0  0
  -16.5318  -17.8999  -24.1781 H   0  0  0  0  0  0  0  0  0  0  0  0
  -14.5808  -19.2570  -28.0116 H   0  0  0  0  0  0  0  0  0  0  0  0
  -14.2003  -21.5727  -28.1623 H   0  0  0  0  0  0  0  0  0  0  0  0
  -15.4022  -22.0708  -24.0255 H   0  0  0  0  0  0  0  0  0  0  0  0
  -15.7804  -19.6778  -23.8830 H   0  0  0  0  0  0  0  0  0  0  0  0
  -12.8465  -24.8661  -25.3511 H   0  0  0  0  0  0  0  0  0  0  0  0
  -13.3826  -23.5971  -24.2460 H   0  0  0  0  0  0  0  0  0  0  0  0
  -12.4034  -23.2071  -25.6453 H   0  0  0  0  0  0  0  0  0  0  0  0
  -15.0393  -23.9204  -28.2288 H   0  0  0  0  0  0  0  0  0  0  0  0
  -13.3166  -23.5710  -27.9382 H   0  0  0  0  0  0  0  0  0  0  0  0
  -13.9918  -25.1570  -27.5672 H   0  0  0  0  0  0  0  0  0  0  0  0
  -16.5990  -24.0478  -26.2691 H   0  0  0  0  0  0  0  0  0  0  0  0
  -15.6482  -25.4130  -25.7767 H   0  0  0  0  0  0  0  0  0  0  0  0
  -15.9697  -24.1250  -24.6198 H   0  0  0  0  0  0  0  0  0  0  0  0
  1  2  2  0
  1  3  1  0
  1 23  1  0
  2  4  1  0
  2  5  1  0
  3  6  2  0
  3 24  1  0
  4  7  2  0
  4  8  1  0
  5 11  2  0
  6  7  1  0
  6 18  1  0
  7 25  1  0
  8  9  1  0
  8 10  2  0
  9 11  1  0
  9 26  1  0
 11 12  1  0
 12 13  2  0
 12 17  1  0
 13 14  1  0
 13 27  1  0
 14 15  2  0
 14 28  1  0
 15 16  1  0
 15 19  1  0
 16 17  2  0
 16 29  1  0
 17 30  1  0
 19 20  1  0
 19 21  1  0
 19 22  1  0
 20 31  1  0
 20 32  1  0
 20 33  1  0
 21 34  1  0
 21 35  1  0
 21 36  1  0
 22 37  1  0
 22 38  1  0
 22 39  1  0
M  END
>  <s_m_entry_id>  (1) 
512

>  <Name>  (1) 
3b

>  <IC50[nM]>  (1) 
3.6

>  <s_m_Source_Path>  (1) 
/projects/mai/users/kmzp800_harry/pmx_colab/docking_jobs/tnks2

>  <s_m_Source_File>  (1) 
tnks2_lig.sdf

>  <i_m_Source_File_Index>  (1) 
6

>  <s_m_job_name>  (1) 
glide-dock_SP_tnks_mcs_fallabck

>  <r_i_docking_score>  (1) 
-9.90735316774517

>  <r_i_glide_gscore>  (1) 
-9.90735316774517

>  <r_i_glide_emodel>  (1) 
-37.3897415649655

>  <index_string>  (1) 
15:0:0

$$$$
