18:0:0
     RDKit          3D

 47 51  0  0  1  0  0  0  0  0999 V2000
   -4.6111   -3.1073   15.3518 C   0  0  0  0  0  0  0  0  0  0  0  0
   -3.9576   -2.1047   14.5866 O   0  0  0  0  0  0  0  0  0  0  0  0
   -2.5936   -1.9570   14.7428 C   0  0  0  0  0  0  0  0  0  0  0  0
   -1.7997   -2.7980   15.5618 C   0  0  0  0  0  0  0  0  0  0  0  0
   -0.4185   -2.5679   15.6979 C   0  0  0  0  0  0  0  0  0  0  0  0
    0.2041   -1.4959   15.0311 C   0  0  0  0  0  0  0  0  0  0  0  0
    1.5765   -1.3075   15.2748 N   0  0  0  0  0  0  0  0  0  0  0  0
    2.5242   -0.4237   14.7299 C   0  0  0  0  0  0  0  0  0  0  0  0
    2.2055    0.3782   13.7494 N   0  0  0  0  0  0  0  0  0  0  0  0
    3.1360    1.2605   13.2422 C   0  0  0  0  0  0  0  0  0  0  0  0
    4.4392    1.2854   13.6831 C   0  0  0  0  0  0  0  0  0  0  0  0
    4.7665    0.4739   14.7198 N   0  0  0  0  0  0  0  0  0  0  0  0
    5.9121    0.3734   15.4818 C   0  0  0  0  0  0  0  0  0  0  0  0
    5.6009   -0.4952   16.4937 C   0  0  0  0  0  0  0  0  0  0  0  0
    4.3546   -1.0613   16.3235 N   0  0  0  0  0  0  0  0  0  0  0  0
    3.8276   -0.4162   15.2903 C   0  0  0  0  0  0  0  0  0  0  0  0
    2.6627    2.2314   12.2246 C   0  0  0  0  0  0  0  0  0  0  0  0
    3.5390    2.7171   11.2183 C   0  0  0  0  0  0  0  0  0  0  0  0
    3.0994    3.6050   10.2151 C   0  0  0  0  0  0  0  0  0  0  0  0
    1.7647    4.0564   10.2017 C   0  0  0  0  0  0  0  0  0  0  0  0
    1.1071    4.8974    9.3173 N   0  0  0  0  0  0  0  0  0  0  0  0
   -0.1130    4.9465    9.8452 C   0  0  0  0  0  0  0  0  0  0  0  0
   -0.3104    4.2228   10.9601 N   0  0  0  0  0  0  0  0  0  0  0  0
    0.8969    3.6037   11.2396 C   0  0  0  0  0  0  0  0  0  0  0  0
    1.3320    2.7132   12.2371 C   0  0  0  0  0  0  0  0  0  0  0  0
   -0.5886   -0.6689   14.2020 C   0  0  0  0  0  0  0  0  0  0  0  0
   -1.9770   -0.8943   14.0439 C   0  0  0  0  0  0  0  0  0  0  0  0
   -2.7835   -0.1026   13.2514 O   0  0  0  0  0  0  0  0  0  0  0  0
   -2.1608    0.7823   12.3291 C   0  0  0  0  0  0  0  0  0  0  0  0
   -5.6824   -3.0753   15.1518 H   0  0  0  0  0  0  0  0  0  0  0  0
   -4.4713   -2.9450   16.4226 H   0  0  0  0  0  0  0  0  0  0  0  0
   -4.2579   -4.1050   15.0875 H   0  0  0  0  0  0  0  0  0  0  0  0
   -2.2244   -3.6245   16.1127 H   0  0  0  0  0  0  0  0  0  0  0  0
    0.1589   -3.2145   16.3440 H   0  0  0  0  0  0  0  0  0  0  0  0
    1.9687   -1.9061   15.9904 H   0  0  0  0  0  0  0  0  0  0  0  0
    5.1958    1.9809   13.3379 H   0  0  0  0  0  0  0  0  0  0  0  0
    6.7721    0.9927   15.2757 H   0  0  0  0  0  0  0  0  0  0  0  0
    6.1246   -0.7426   17.3918 H   0  0  0  0  0  0  0  0  0  0  0  0
    4.5617    2.3716   11.1817 H   0  0  0  0  0  0  0  0  0  0  0  0
    3.7775    3.9357    9.4438 H   0  0  0  0  0  0  0  0  0  0  0  0
   -0.9004    5.5366    9.3985 H   0  0  0  0  0  0  0  0  0  0  0  0
   -1.1749    4.1752   11.4775 H   0  0  0  0  0  0  0  0  0  0  0  0
    0.6476    2.3892   13.0062 H   0  0  0  0  0  0  0  0  0  0  0  0
   -0.1503    0.1700   13.6968 H   0  0  0  0  0  0  0  0  0  0  0  0
   -2.9162    1.1981   11.6650 H   0  0  0  0  0  0  0  0  0  0  0  0
   -1.6786    1.6144   12.8419 H   0  0  0  0  0  0  0  0  0  0  0  0
   -1.4281    0.2674   11.7052 H   0  0  0  0  0  0  0  0  0  0  0  0
  1  2  1  0
  1 30  1  0
  1 31  1  0
  1 32  1  0
  2  3  1  0
  3  4  2  0
  3 27  1  0
  4  5  1  0
  4 33  1  0
  5  6  2  0
  5 34  1  0
  6  7  1  0
  6 26  1  0
  7  8  1  0
  7 35  1  0
  8  9  2  0
  8 16  1  0
  9 10  1  0
 10 11  2  0
 10 17  1  0
 11 12  1  0
 11 36  1  0
 12 13  1  0
 12 16  1  0
 13 14  2  0
 13 37  1  0
 14 15  1  0
 14 38  1  0
 15 16  2  0
 17 18  2  0
 17 25  1  0
 18 19  1  0
 18 39  1  0
 19 20  2  0
 19 40  1  0
 20 21  1  0
 20 24  1  0
 21 22  2  0
 22 23  1  0
 22 41  1  0
 23 24  1  0
 23 42  1  0
 24 25  2  0
 25 43  1  0
 26 27  2  0
 26 44  1  0
 27 28  1  0
 28 29  1  0
 29 45  1  0
 29 46  1  0
 29 47  1  0
M  END
>  <s_m_entry_id>  (1) 
1006

>  <IC50[nM]>  (1) 
6.3

>  <s_m_Source_Path>  (1) 
/projects/mai/users/kmzp800_harry/pmx_colab/docking_jobs/syk

>  <s_m_Source_File>  (1) 
tnks2_lig.sdf

>  <i_m_Source_File_Index>  (1) 
19

>  <s_m_job_name>  (1) 
glide-dock_SP_tnks2_core_const

>  <r_i_docking_score>  (1) 
-7.20377906588699

>  <r_i_glide_gscore>  (1) 
-7.20377906588699

>  <r_i_glide_emodel>  (1) 
-50.1248971885226

>  <index_string>  (1) 
18:0:0

$$$$
