20:0:0
     RDKit          3D

 43 46  0  0  1  0  0  0  0  0999 V2000
   38.9521   36.1453   16.2894 F   0  0  0  0  0  0  0  0  0  0  0  0
   37.7992   35.9494   16.9599 C   0  0  0  0  0  0  0  0  0  0  0  0
   36.6414   35.5805   16.2556 C   0  0  0  0  0  0  0  0  0  0  0  0
   35.4292   35.4000   16.9435 C   0  0  0  0  0  0  0  0  0  0  0  0
   34.3276   35.0151   16.2581 F   0  0  0  0  0  0  0  0  0  0  0  0
   35.3652   35.5862   18.3406 C   0  0  0  0  0  0  0  0  0  0  0  0
   36.5413   35.9493   19.0459 C   0  0  0  0  0  0  0  0  0  0  0  0
   37.7522   36.1347   18.3547 C   0  0  0  0  0  0  0  0  0  0  0  0
   34.1588   35.3664   18.9640 O   0  0  0  0  0  0  0  0  0  0  0  0
   33.9004   35.9664   20.1685 C   0  0  0  0  0  0  0  0  0  0  0  0
   34.0163   37.3021   20.3186 C   0  0  0  0  0  0  0  0  0  0  0  0
   33.5027   35.0965   21.2792 C   0  0  0  0  0  0  0  0  0  0  0  0
   33.5106   33.8681   21.1664 O   0  0  0  0  0  0  0  0  0  0  0  0
   33.1653   35.7165   22.4485 N   0  0  0  0  0  0  0  0  0  0  0  0
   32.6743   34.8899   23.5625 C   0  0  0  0  0  0  0  0  0  0  0  0
   33.3528   37.1223   22.6800 C   0  0  0  0  0  0  0  0  0  0  0  0
   33.7865   37.9296   21.6093 C   0  0  0  0  0  0  0  0  0  0  0  0
   33.1507   37.6880   23.8892 N   0  0  0  0  0  0  0  0  0  0  0  0
   33.3814   38.9924   24.0365 C   0  0  0  0  0  0  0  0  0  0  0  0
   33.8272   39.8233   23.0955 N   0  0  0  0  0  0  0  0  0  0  0  0
   34.0217   39.2937   21.8703 C   0  0  0  0  0  0  0  0  0  0  0  0
   33.1286   39.5492   25.2744 N   0  0  0  0  0  0  0  0  0  0  0  0
   32.6330   38.7881   26.4172 C   0  0  0  0  0  0  0  0  0  0  0  0
   31.1692   38.3944   26.3173 C   0  0  0  0  0  0  0  0  0  0  0  0
   30.8248   38.0871   27.7742 C   0  0  0  0  0  0  0  0  0  0  0  0
   31.7527   38.8297   28.5641 O   0  0  0  0  0  0  0  0  0  0  0  0
   32.6249   39.5756   27.7207 C   0  0  0  0  0  0  0  0  0  0  0  0
   33.2432   37.8929   26.5508 H   0  0  0  0  0  0  0  0  0  0  0  0
   36.6847   35.4392   15.1868 H   0  0  0  0  0  0  0  0  0  0  0  0
   36.5320   36.0803   20.1181 H   0  0  0  0  0  0  0  0  0  0  0  0
   38.6470   36.4172   18.8905 H   0  0  0  0  0  0  0  0  0  0  0  0
   34.3044   37.9332   19.4902 H   0  0  0  0  0  0  0  0  0  0  0  0
   32.0031   35.4443   24.2186 H   0  0  0  0  0  0  0  0  0  0  0  0
   32.1060   34.0223   23.2238 H   0  0  0  0  0  0  0  0  0  0  0  0
   33.5122   34.5333   24.1619 H   0  0  0  0  0  0  0  0  0  0  0  0
   34.3774   39.9603   21.0987 H   0  0  0  0  0  0  0  0  0  0  0  0
   33.3517   40.5312   25.4038 H   0  0  0  0  0  0  0  0  0  0  0  0
   30.5676   39.2310   25.9592 H   0  0  0  0  0  0  0  0  0  0  0  0
   30.9907   37.5448   25.6576 H   0  0  0  0  0  0  0  0  0  0  0  0
   29.7952   38.3481   28.0197 H   0  0  0  0  0  0  0  0  0  0  0  0
   30.9609   37.0260   27.9866 H   0  0  0  0  0  0  0  0  0  0  0  0
   33.6170   39.6813   28.1598 H   0  0  0  0  0  0  0  0  0  0  0  0
   32.2072   40.5720   27.5721 H   0  0  0  0  0  0  0  0  0  0  0  0
  1  2  1  0
  2  8  2  0
  2  3  1  0
  3  4  2  0
  3 29  1  0
  4  5  1  0
  4  6  1  0
  6  7  2  0
  6  9  1  0
  7  8  1  0
  7 30  1  0
  8 31  1  0
  9 10  1  0
 10 11  2  0
 10 12  1  0
 11 17  1  0
 11 32  1  0
 12 13  2  0
 12 14  1  0
 14 15  1  0
 14 16  1  0
 15 33  1  0
 15 34  1  0
 15 35  1  0
 16 17  2  0
 16 18  1  0
 17 21  1  0
 18 19  2  0
 19 20  1  0
 19 22  1  0
 20 21  2  0
 21 36  1  0
 22 23  1  0
 22 37  1  0
 23 28  1  0
 23 27  1  0
 23 24  1  0
 24 25  1  0
 24 38  1  0
 24 39  1  0
 25 26  1  0
 25 40  1  0
 25 41  1  0
 26 27  1  0
 27 42  1  0
 27 43  1  0
M  END
>  <s_m_entry_id>  (1) 
736

>  <i_f3d_flags>  (1) 
0

>  <r_lp_tautomer_probability>  (1) 
1

>  <r_epik_Ionization_Penalty>  (1) 
  0.0000

>  <r_epik_State_Penalty>  (1) 
  0.0000

>  <i_epik_Tot_Q>  (1) 
0

>  <s_m_job_name>  (1) 
glide-dock_SP_p38_all_ligs_no_cons_10_poses

>  <r_i_docking_score>  (1) 
-7.23057367496032

>  <r_i_glide_gscore>  (1) 
-7.23057367496032

>  <r_i_glide_emodel>  (1) 
-54.7189789462517

>  <index_string>  (1) 
20:0:0

$$$$
