8:0:0
     RDKit          3D

 45 47  0  0  1  0  0  0  0  0999 V2000
   39.2008   17.5437   12.6848 O   0  0  0  0  0  0  0  0  0  0  0  0
   40.3597   17.0696   12.6845 C   0  0  0  0  0  0  0  0  0  0  0  0
   41.2273   17.3069   11.8138 O   0  0  0  0  0  0  0  0  0  0  0  0
   40.7577   16.1458   13.8347 C   0  0  0  0  0  0  0  0  0  0  0  0
   42.1243   15.7545   13.7456 O   0  0  0  0  0  0  0  0  0  0  0  0
   42.5153   14.9367   14.7489 C   0  0  0  0  0  0  0  0  0  0  0  0
   42.1431   13.5756   14.8842 C   0  0  0  0  0  0  0  0  0  0  0  0
   41.1712   12.6872   13.5366 Br  0  0  0  0  0  0  0  0  0  0  0  0
   42.5854   12.9463   16.0129 C   0  0  0  0  0  0  0  0  0  0  0  0
   42.3237   11.5973   16.4906 C   0  0  0  0  0  0  0  0  0  0  0  0
   43.3712   10.7905   16.9766 C   0  0  0  0  0  0  0  0  0  0  0  0
   43.1150    9.4777   17.4081 C   0  0  0  0  0  0  0  0  0  0  0  0
   41.8073    8.9658   17.3517 C   0  0  0  0  0  0  0  0  0  0  0  0
   40.7470    9.7561   16.8705 C   0  0  0  0  0  0  0  0  0  0  0  0
   39.4389    9.2598   16.7820 N   0  0  0  0  0  0  0  0  0  0  0  0
   39.2108    7.8491   16.4481 C   0  0  0  0  0  0  0  0  0  0  0  0
   37.7045    7.5142   16.5070 C   0  0  0  0  0  0  0  0  0  0  0  0
   36.9154    8.1706   15.3572 C   0  0  0  0  0  0  0  0  0  0  0  0
   37.4947    7.7704   13.9893 C   0  0  0  0  0  0  0  0  0  0  0  0
   38.9928    8.1071   13.9017 C   0  0  0  0  0  0  0  0  0  0  0  0
   39.7792    7.4624   15.0570 C   0  0  0  0  0  0  0  0  0  0  0  0
   41.0107   11.0764   16.4569 C   0  0  0  0  0  0  0  0  0  0  0  0
   43.6100   14.0170   16.9164 S   0  0  0  0  0  0  0  0  0  0  0  0
   43.3450   15.3179   15.7685 C   0  0  0  0  0  0  0  0  0  0  0  0
   44.0108   16.5871   16.0415 C   0  0  0  0  0  0  0  0  0  0  0  0
   43.8533   17.5420   15.2549 O   0  0  0  0  0  0  0  0  0  0  0  0
   44.7441   16.6863   17.0468 O   0  0  0  0  0  0  0  0  0  0  0  0
   40.5513   16.6398   14.7848 H   0  0  0  0  0  0  0  0  0  0  0  0
   40.1309   15.2688   13.7653 H   0  0  0  0  0  0  0  0  0  0  0  0
   44.3794   11.1735   17.0088 H   0  0  0  0  0  0  0  0  0  0  0  0
   43.9238    8.8652   17.7775 H   0  0  0  0  0  0  0  0  0  0  0  0
   41.6280    7.9464   17.6578 H   0  0  0  0  0  0  0  0  0  0  0  0
   38.7215    9.9028   16.5083 H   0  0  0  0  0  0  0  0  0  0  0  0
   39.7004    7.2469   17.2145 H   0  0  0  0  0  0  0  0  0  0  0  0
   37.5795    6.4287   16.4483 H   0  0  0  0  0  0  0  0  0  0  0  0
   37.2930    7.8164   17.4746 H   0  0  0  0  0  0  0  0  0  0  0  0
   35.8661    7.8825   15.4183 H   0  0  0  0  0  0  0  0  0  0  0  0
   36.9462    9.2582   15.4496 H   0  0  0  0  0  0  0  0  0  0  0  0
   39.3977    7.7721   12.9434 H   0  0  0  0  0  0  0  0  0  0  0  0
   39.1195    9.1912   13.9273 H   0  0  0  0  0  0  0  0  0  0  0  0
   40.8374    7.7211   14.9717 H   0  0  0  0  0  0  0  0  0  0  0  0
   39.7392    6.3770   14.9507 H   0  0  0  0  0  0  0  0  0  0  0  0
   40.2033   11.6908   16.0869 H   0  0  0  0  0  0  0  0  0  0  0  0
   37.3456    6.7003   13.8324 H   0  0  0  0  0  0  0  0  0  0  0  0
   36.9542    8.2841   13.1921 H   0  0  0  0  0  0  0  0  0  0  0  0
  1  2  2  0
  2  3  1  0
  2  4  1  0
  4  5  1  0
  4 28  1  0
  4 29  1  0
  5  6  1  0
  6  7  1  0
  6 24  2  0
  7  8  1  0
  7  9  2  0
  9 10  1  0
  9 23  1  0
 10 11  2  0
 10 22  1  0
 11 12  1  0
 11 30  1  0
 12 13  2  0
 12 31  1  0
 13 14  1  0
 13 32  1  0
 14 15  1  0
 14 22  2  0
 15 16  1  0
 15 33  1  0
 16 17  1  0
 16 21  1  0
 16 34  1  0
 17 18  1  0
 17 35  1  0
 17 36  1  0
 18 19  1  0
 18 37  1  0
 18 38  1  0
 19 20  1  0
 19 44  1  0
 19 45  1  0
 20 21  1  0
 20 39  1  0
 20 40  1  0
 21 41  1  0
 21 42  1  0
 22 43  1  0
 23 24  1  0
 24 25  1  0
 25 26  2  0
 25 27  1  0
M  CHG  2   3  -1  27  -1
M  END
>  <s_m_entry_id>  (1) 
525

>  <s_m_Source_Path>  (1) 
/projects/mai/users/kmzp800_harry/pmx_colab/docking_jobs/ptp1b/glide-dock_SP_ptp1b_mcs_2

>  <s_m_Source_File>  (1) 
glide-dock_SP_ptp1b_mcs_2_pv.maegz

>  <i_m_Source_File_Index>  (1) 
10

>  <r_i_docking_score>  (1) 
-6.75401094997784

>  <r_i_glide_gscore>  (1) 
-6.75401094997784

>  <r_i_glide_emodel>  (1) 
-82.2331530182704

>  <index_string>  (1) 
8:0:0

$$$$
