9:0:0
     RDKit          3D

 40 42  0  0  1  0  0  0  0  0999 V2000
  -14.6860  -16.7380  -26.5620 N   0  0  0  0  0  0  0  0  0  0  0  0
  -14.9740  -15.3730  -26.4880 C   0  0  0  0  0  0  0  0  0  0  0  0
  -15.7330  -14.8710  -25.4210 C   0  0  0  0  0  0  0  0  0  0  0  0
  -15.4530  -12.6600  -26.2930 C   0  0  0  0  0  0  0  0  0  0  0  0
  -14.7140  -13.1450  -27.3650 C   0  0  0  0  0  0  0  0  0  0  0  0
  -15.9750  -13.5030  -25.3170 C   0  0  0  0  0  0  0  0  0  0  0  0
  -14.4880  -14.5130  -27.4860 C   0  0  0  0  0  0  0  0  0  0  0  0
  -16.2980  -15.8460  -24.4090 C   0  0  0  0  0  0  0  0  0  0  0  0
  -15.9030  -17.1240  -24.6650 N   0  0  0  0  0  0  0  0  0  0  0  0
  -15.1090  -17.5900  -25.6960 C   0  0  0  0  0  0  0  0  0  0  0  0
  -17.0560  -15.5720  -23.4770 O   0  0  0  0  0  0  0  0  0  0  0  0
  -13.7170  -15.0070  -28.6990 C   0  0  0  0  0  0  0  0  0  0  0  0
  -15.6880  -11.3520  -26.2320 F   0  0  0  0  0  0  0  0  0  0  0  0
  -14.7970  -19.0240  -25.8220 C   0  0  0  0  0  0  0  0  0  0  0  0
  -14.2840  -19.7070  -24.7100 C   0  0  0  0  0  0  0  0  0  0  0  0
  -15.0050  -19.7180  -27.0190 C   0  0  0  0  0  0  0  0  0  0  0  0
  -13.9900  -21.0540  -24.7880 C   0  0  0  0  0  0  0  0  0  0  0  0
  -14.7270  -21.0770  -27.0880 C   0  0  0  0  0  0  0  0  0  0  0  0
  -14.2160  -21.7520  -25.9720 C   0  0  0  0  0  0  0  0  0  0  0  0
  -14.0170  -23.2660  -26.0010 C   0  0  0  0  0  0  0  0  0  0  0  0
  -13.1100  -23.7240  -27.1410 C   0  0  0  0  0  0  0  0  0  0  0  0
  -15.4050  -23.9060  -26.0330 C   0  0  0  0  0  0  0  0  0  0  0  0
  -13.3470  -23.7710  -24.8650 O   0  0  0  0  0  0  0  0  0  0  0  0
  -14.3090  -12.4502  -28.1155 H   0  0  0  0  0  0  0  0  0  0  0  0
  -16.5656  -13.0984  -24.4819 H   0  0  0  0  0  0  0  0  0  0  0  0
  -16.2404  -17.8373  -24.0030 H   0  0  0  0  0  0  0  0  0  0  0  0
  -12.8341  -15.5727  -28.3668 H   0  0  0  0  0  0  0  0  0  0  0  0
  -14.3640  -15.6591  -29.3041 H   0  0  0  0  0  0  0  0  0  0  0  0
  -13.3949  -14.1467  -29.3041 H   0  0  0  0  0  0  0  0  0  0  0  0
  -14.1144  -19.1653  -23.7678 H   0  0  0  0  0  0  0  0  0  0  0  0
  -15.3880  -19.1883  -27.9037 H   0  0  0  0  0  0  0  0  0  0  0  0
  -13.5764  -21.5769  -23.9131 H   0  0  0  0  0  0  0  0  0  0  0  0
  -14.9090  -21.6260  -28.0237 H   0  0  0  0  0  0  0  0  0  0  0  0
  -12.2011  -24.1829  -26.7247 H   0  0  0  0  0  0  0  0  0  0  0  0
  -13.6426  -24.4612  -27.7597 H   0  0  0  0  0  0  0  0  0  0  0  0
  -12.8329  -22.8578  -27.7597 H   0  0  0  0  0  0  0  0  0  0  0  0
  -15.7576  -24.0686  -25.0038 H   0  0  0  0  0  0  0  0  0  0  0  0
  -16.1041  -23.2393  -26.5591 H   0  0  0  0  0  0  0  0  0  0  0  0
  -15.3520  -24.8706  -26.5591 H   0  0  0  0  0  0  0  0  0  0  0  0
  -13.7900  -23.4371  -24.0450 H   0  0  0  0  0  0  0  0  0  0  0  0
  1  2  1  0
  1 10  2  0
  2  3  2  0
  2  7  1  0
  3  6  1  0
  3  8  1  0
  4 13  1  0
  4  6  2  0
  4  5  1  0
  5  7  2  0
  7 12  1  0
  8 11  2  0
  8  9  1  0
  9 10  1  0
 10 14  1  0
 14 15  2  0
 14 16  1  0
 15 17  1  0
 16 18  2  0
 17 19  2  0
 18 19  1  0
 19 20  1  0
 20 23  1  0
 20 21  1  0
 20 22  1  0
  5 24  1  0
  6 25  1  0
  9 26  1  0
 12 27  1  0
 12 28  1  0
 12 29  1  0
 15 30  1  0
 16 31  1  0
 17 32  1  0
 18 33  1  0
 21 34  1  0
 21 35  1  0
 21 36  1  0
 22 37  1  0
 22 38  1  0
 22 39  1  0
 23 40  1  0
M  END
>  <s_m_entry_id>  (1) 
2337

>  <MODEL>  (1) 
1

>  <REMARK>  (1) 
 VINA RESULT:   -10.682      0.000      0.000
 INTER + INTRA:         -12.705
 INTER:                 -12.243
 INTRA:                  -0.462
 UNBOUND:                -0.462
  Name = 5m
  6 active torsions:
  status: ('A' for Active; 'I' for Inactive)
    1  A    between atoms: C_1  and  C_17
    2  A    between atoms: C_7  and  C_8
    3  A    between atoms: C_8  and  C_19
    4  A    between atoms: C_8  and  O_20
    5  A    between atoms: C_8  and  C_21
    6  A    between atoms: C_14  and  C_22
                            x       y       z     vdW  Elec       q    Type
                         _______ _______ _______ _____ _____    ______ ____

>  <TORSDO>  (1) 
F 3

>  <s_m_Source_Path>  (1) 
/projects/mai/users/kmzp800_harry/pmx_colab/docking_jobs/tnks2/vina_prep/output

>  <s_m_Source_File>  (1) 
tnks_naive_vina.sdf

>  <i_m_Source_File_Index>  (1) 
10

>  <index_string>  (1) 
9:0:0

$$$$
