3:0:0
     RDKit          3D

 48 52  0  0  1  0  0  0  0  0999 V2000
   -4.5897   -3.1950   15.2689 C   0  0  0  0  0  0  0  0  0  0  0  0
   -3.9512   -2.1336   14.5691 O   0  0  0  0  0  0  0  0  0  0  0  0
   -2.5907   -1.9700   14.7365 C   0  0  0  0  0  0  0  0  0  0  0  0
   -1.7890   -2.8146   15.5434 C   0  0  0  0  0  0  0  0  0  0  0  0
   -0.4113   -2.5705   15.6873 C   0  0  0  0  0  0  0  0  0  0  0  0
    0.2029   -1.4859   15.0335 C   0  0  0  0  0  0  0  0  0  0  0  0
    1.5734   -1.2911   15.2863 N   0  0  0  0  0  0  0  0  0  0  0  0
    2.5244   -0.4185   14.7317 C   0  0  0  0  0  0  0  0  0  0  0  0
    2.1996    0.3854   13.7543 N   0  0  0  0  0  0  0  0  0  0  0  0
    3.1314    1.2643   13.2468 C   0  0  0  0  0  0  0  0  0  0  0  0
    4.4358    1.2907   13.6870 C   0  0  0  0  0  0  0  0  0  0  0  0
    4.7702    0.4799   14.7199 N   0  0  0  0  0  0  0  0  0  0  0  0
    5.9172    0.3760   15.4810 C   0  0  0  0  0  0  0  0  0  0  0  0
    5.6087   -0.4968   16.4918 C   0  0  0  0  0  0  0  0  0  0  0  0
    4.3604   -1.0609   16.3200 N   0  0  0  0  0  0  0  0  0  0  0  0
    3.8312   -0.4134   15.2887 C   0  0  0  0  0  0  0  0  0  0  0  0
    2.6772    2.2340   12.2176 C   0  0  0  0  0  0  0  0  0  0  0  0
    3.5658    2.6751   11.2036 C   0  0  0  0  0  0  0  0  0  0  0  0
    3.1428    3.5231   10.1603 C   0  0  0  0  0  0  0  0  0  0  0  0
    1.8104    3.9823   10.0919 C   0  0  0  0  0  0  0  0  0  0  0  0
    1.0580    4.7702    9.1516 C   0  0  0  0  0  0  0  0  0  0  0  0
   -0.2080    4.8838    9.6652 C   0  0  0  0  0  0  0  0  0  0  0  0
   -0.2719    4.1926   10.8652 N   0  0  0  0  0  0  0  0  0  0  0  0
    0.9408    3.5977   11.1542 C   0  0  0  0  0  0  0  0  0  0  0  0
    1.3602    2.7494   12.2011 C   0  0  0  0  0  0  0  0  0  0  0  0
   -0.5978   -0.6529   14.2170 C   0  0  0  0  0  0  0  0  0  0  0  0
   -1.9863   -0.8882   14.0586 C   0  0  0  0  0  0  0  0  0  0  0  0
   -2.8062   -0.0930   13.2818 O   0  0  0  0  0  0  0  0  0  0  0  0
   -2.1948    0.8379   12.3952 C   0  0  0  0  0  0  0  0  0  0  0  0
   -5.6580   -3.1828   15.0480 H   0  0  0  0  0  0  0  0  0  0  0  0
   -4.4760   -3.0881   16.3502 H   0  0  0  0  0  0  0  0  0  0  0  0
   -4.2012   -4.1661   14.9565 H   0  0  0  0  0  0  0  0  0  0  0  0
   -2.2058   -3.6529   16.0805 H   0  0  0  0  0  0  0  0  0  0  0  0
    0.1719   -3.2203   16.3249 H   0  0  0  0  0  0  0  0  0  0  0  0
    1.9634   -1.8831   16.0078 H   0  0  0  0  0  0  0  0  0  0  0  0
    5.1903    1.9873   13.3399 H   0  0  0  0  0  0  0  0  0  0  0  0
    6.7771    0.9952   15.2741 H   0  0  0  0  0  0  0  0  0  0  0  0
    6.1338   -0.7505   17.3871 H   0  0  0  0  0  0  0  0  0  0  0  0
    4.5828    2.3129   11.1823 H   0  0  0  0  0  0  0  0  0  0  0  0
    3.8384    3.7987    9.3817 H   0  0  0  0  0  0  0  0  0  0  0  0
    1.4243    5.1844    8.2188 H   0  0  0  0  0  0  0  0  0  0  0  0
   -1.0707    5.4001    9.2687 H   0  0  0  0  0  0  0  0  0  0  0  0
   -1.1063    4.1422   11.4305 H   0  0  0  0  0  0  0  0  0  0  0  0
    0.6617    2.4644   12.9724 H   0  0  0  0  0  0  0  0  0  0  0  0
   -0.1661    0.1980   13.7256 H   0  0  0  0  0  0  0  0  0  0  0  0
   -2.9568    1.2780   11.7531 H   0  0  0  0  0  0  0  0  0  0  0  0
   -1.7139    1.6516   12.9425 H   0  0  0  0  0  0  0  0  0  0  0  0
   -1.4614    0.3541   11.7456 H   0  0  0  0  0  0  0  0  0  0  0  0
  1  2  1  0
  1 30  1  0
  1 31  1  0
  1 32  1  0
  2  3  1  0
  3  4  2  0
  3 27  1  0
  4  5  1  0
  4 33  1  0
  5  6  2  0
  5 34  1  0
  6  7  1  0
  6 26  1  0
  7  8  1  0
  7 35  1  0
  8  9  2  0
  8 16  1  0
  9 10  1  0
 10 11  2  0
 10 17  1  0
 11 12  1  0
 11 36  1  0
 12 13  1  0
 12 16  1  0
 13 14  2  0
 13 37  1  0
 14 15  1  0
 14 38  1  0
 15 16  2  0
 17 18  2  0
 17 25  1  0
 18 19  1  0
 18 39  1  0
 19 20  2  0
 19 40  1  0
 20 21  1  0
 20 24  1  0
 21 22  2  0
 21 41  1  0
 22 23  1  0
 22 42  1  0
 23 24  1  0
 23 43  1  0
 24 25  2  0
 25 44  1  0
 26 27  2  0
 26 45  1  0
 27 28  1  0
 28 29  1  0
 29 46  1  0
 29 47  1  0
 29 48  1  0
M  END
>  <s_m_entry_id>  (1) 
991

>  <IC50[nM]>  (1) 
2.7

>  <s_m_Source_Path>  (1) 
/projects/mai/users/kmzp800_harry/pmx_colab/docking_jobs/syk

>  <s_m_Source_File>  (1) 
tnks2_lig.sdf

>  <i_m_Source_File_Index>  (1) 
4

>  <s_m_job_name>  (1) 
glide-dock_SP_tnks2_core_const

>  <r_i_docking_score>  (1) 
-7.31627499483715

>  <r_i_glide_gscore>  (1) 
-7.31627499483715

>  <r_i_glide_emodel>  (1) 
-49.5639532703265

>  <index_string>  (1) 
3:0:0

$$$$
