2:0:0
     RDKit          3D

 48 51  0  0  1  0  0  0  0  0999 V2000
  -14.5240  -14.5990  -27.4130 C   0  0  0  0  0  0  0  0  0  0  0  0
  -15.0250  -15.4490  -26.4090 C   0  0  0  0  0  0  0  0  0  0  0  0
  -14.6430  -13.2160  -27.2600 C   0  0  0  0  0  0  0  0  0  0  0  0
  -15.6910  -14.9020  -25.3040 C   0  0  0  0  0  0  0  0  0  0  0  0
  -14.8460  -16.8430  -26.5110 N   0  0  0  0  0  0  0  0  0  0  0  0
  -15.2800  -12.6770  -26.1460 C   0  0  0  0  0  0  0  0  0  0  0  0
  -15.8210  -13.5150  -25.1660 C   0  0  0  0  0  0  0  0  0  0  0  0
  -16.2730  -15.8520  -24.2770 C   0  0  0  0  0  0  0  0  0  0  0  0
  -15.9230  -17.1470  -24.5210 N   0  0  0  0  0  0  0  0  0  0  0  0
  -17.0050  -15.5400  -23.3380 O   0  0  0  0  0  0  0  0  0  0  0  0
  -15.2470  -17.6750  -25.6070 C   0  0  0  0  0  0  0  0  0  0  0  0
  -13.8300  -15.1230  -28.6590 C   0  0  0  0  0  0  0  0  0  0  0  0
  -15.3700  -11.3330  -26.0320 F   0  0  0  0  0  0  0  0  0  0  0  0
  -15.0450  -19.1430  -25.7280 C   0  0  0  0  0  0  0  0  0  0  0  0
  -15.0110  -19.7340  -27.0010 C   0  0  0  0  0  0  0  0  0  0  0  0
  -14.8470  -21.1060  -27.1500 C   0  0  0  0  0  0  0  0  0  0  0  0
  -14.7020  -21.9300  -26.0310 C   0  0  0  0  0  0  0  0  0  0  0  0
  -14.7180  -21.3480  -24.7600 C   0  0  0  0  0  0  0  0  0  0  0  0
  -14.8930  -19.9730  -24.6070 C   0  0  0  0  0  0  0  0  0  0  0  0
  -14.6300  -23.4600  -26.1760 C   0  0  0  0  0  0  0  0  0  0  0  0
  -15.7290  -23.9560  -27.1200 C   0  0  0  0  0  0  0  0  0  0  0  0
  -15.7060  -25.4810  -27.2610 C   0  0  0  0  0  0  0  0  0  0  0  0
  -14.4010  -25.8480  -27.9740 N   0  0  0  0  0  0  0  0  0  0  0  0
  -13.2180  -25.5090  -27.0630 C   0  0  0  0  0  0  0  0  0  0  0  0
  -13.2530  -24.0110  -26.6170 C   0  0  0  0  0  0  0  0  0  0  0  0
  -14.3910  -27.3500  -28.3560 C   0  0  0  0  0  0  0  0  0  0  0  0
  -14.2291  -12.5458  -28.0277 H   0  0  0  0  0  0  0  0  0  0  0  0
  -16.3429  -13.0891  -24.2964 H   0  0  0  0  0  0  0  0  0  0  0  0
  -16.1998  -17.8257  -23.7974 H   0  0  0  0  0  0  0  0  0  0  0  0
  -12.9838  -15.7619  -28.3661 H   0  0  0  0  0  0  0  0  0  0  0  0
  -14.5431  -15.7100  -29.2565 H   0  0  0  0  0  0  0  0  0  0  0  0
  -13.4607  -14.2764  -29.2565 H   0  0  0  0  0  0  0  0  0  0  0  0
  -15.1158  -19.1011  -27.8946 H   0  0  0  0  0  0  0  0  0  0  0  0
  -14.8312  -21.5470  -28.1576 H   0  0  0  0  0  0  0  0  0  0  0  0
  -14.5911  -21.9821  -23.8702 H   0  0  0  0  0  0  0  0  0  0  0  0
  -14.9121  -19.5350  -23.5981 H   0  0  0  0  0  0  0  0  0  0  0  0
  -14.7876  -23.8552  -25.1616 H   0  0  0  0  0  0  0  0  0  0  0  0
  -16.7072  -23.6492  -26.7213 H   0  0  0  0  0  0  0  0  0  0  0  0
  -15.5537  -23.5162  -28.1129 H   0  0  0  0  0  0  0  0  0  0  0  0
  -15.7386  -25.9523  -26.2676 H   0  0  0  0  0  0  0  0  0  0  0  0
  -16.5770  -25.8344  -27.8324 H   0  0  0  0  0  0  0  0  0  0  0  0
  -13.2591  -26.1495  -26.1697 H   0  0  0  0  0  0  0  0  0  0  0  0
  -12.2879  -25.6816  -27.6244 H   0  0  0  0  0  0  0  0  0  0  0  0
  -12.9030  -23.4010  -27.4628 H   0  0  0  0  0  0  0  0  0  0  0  0
  -12.6145  -23.9557  -25.7230 H   0  0  0  0  0  0  0  0  0  0  0  0
  -14.3869  -27.9610  -27.4413 H   0  0  0  0  0  0  0  0  0  0  0  0
  -15.2876  -27.5835  -28.9489 H   0  0  0  0  0  0  0  0  0  0  0  0
  -13.4914  -27.5716  -28.9489 H   0  0  0  0  0  0  0  0  0  0  0  0
  1  3  2  0
  1  2  1  0
  1 12  1  0
  2  4  2  0
  2  5  1  0
  3  6  1  0
  4  7  1  0
  4  8  1  0
  5 11  2  0
  6 13  1  0
  6  7  2  0
  8 10  2  0
  8  9  1  0
  9 11  1  0
 11 14  1  0
 14 19  1  0
 14 15  2  0
 15 16  1  0
 16 17  2  0
 17 18  1  0
 17 20  1  0
 18 19  2  0
 20 21  1  0
 20 25  1  0
 21 22  1  0
 22 23  1  0
 23 24  1  0
 23 26  1  0
 24 25  1  0
  3 27  1  0
  7 28  1  0
  9 29  1  0
 12 30  1  0
 12 31  1  0
 12 32  1  0
 15 33  1  0
 16 34  1  0
 18 35  1  0
 19 36  1  0
 20 37  1  0
 21 38  1  0
 21 39  1  0
 22 40  1  0
 22 41  1  0
 24 42  1  0
 24 43  1  0
 25 44  1  0
 25 45  1  0
 26 46  1  0
 26 47  1  0
 26 48  1  0
M  END
>  <s_m_entry_id>  (1) 
2330

>  <MODEL>  (1) 
1

>  <REMARK>  (1) 
 VINA RESULT:   -11.778      0.000      0.000
 INTER + INTRA:         -13.642
 INTER:                 -13.155
 INTRA:                  -0.487
 UNBOUND:                -0.487
  Name = 8f
  4 active torsions:
  status: ('A' for Active; 'I' for Inactive)
    1  A    between atoms: C_1  and  C_18
    2  A    between atoms: C_11  and  C_12
    3  A    between atoms: C_15  and  C_20
    4  A    between atoms: N_23  and  C_26
                            x       y       z     vdW  Elec       q    Type
                         _______ _______ _______ _____ _____    ______ ____

>  <TORSDO>  (1) 
F 2

>  <s_m_Source_Path>  (1) 
/projects/mai/users/kmzp800_harry/pmx_colab/docking_jobs/tnks2/vina_prep/output

>  <s_m_Source_File>  (1) 
tnks_naive_vina.sdf

>  <i_m_Source_File_Index>  (1) 
3

>  <index_string>  (1) 
2:0:0

$$$$
