6:0:0
     RDKit          3D

 65 70  0  0  1  0  0  0  0  0999 V2000
   -4.1365   -2.1660   15.3010 C   0  0  0  0  0  0  0  0  0  0  0  0
   -3.5527   -1.2655   14.3690 O   0  0  0  0  0  0  0  0  0  0  0  0
   -2.1747   -1.1955   14.3074 C   0  0  0  0  0  0  0  0  0  0  0  0
   -1.3122   -2.0028   15.0876 C   0  0  0  0  0  0  0  0  0  0  0  0
    0.0811   -1.8386   15.0174 C   0  0  0  0  0  0  0  0  0  0  0  0
    0.6559   -0.8784   14.1612 C   0  0  0  0  0  0  0  0  0  0  0  0
    2.0602   -0.7804   14.1775 N   0  0  0  0  0  0  0  0  0  0  0  0
    2.9117    0.2920   13.8579 C   0  0  0  0  0  0  0  0  0  0  0  0
    2.5340    1.2076   13.0175 N   0  0  0  0  0  0  0  0  0  0  0  0
    3.3768    2.2527   12.7221 C   0  0  0  0  0  0  0  0  0  0  0  0
    4.6093    2.4052   13.3111 C   0  0  0  0  0  0  0  0  0  0  0  0
    4.9892    1.4681   14.2170 N   0  0  0  0  0  0  0  0  0  0  0  0
    6.1127    1.3540   15.0165 C   0  0  0  0  0  0  0  0  0  0  0  0
    5.9621    0.2122   15.7560 C   0  0  0  0  0  0  0  0  0  0  0  0
    4.7482   -0.3960   15.4619 N   0  0  0  0  0  0  0  0  0  0  0  0
    4.1716    0.3589   14.5240 C   0  0  0  0  0  0  0  0  0  0  0  0
    2.8840    3.1804   11.6850 C   0  0  0  0  0  0  0  0  0  0  0  0
    3.7800    3.7416   10.7506 C   0  0  0  0  0  0  0  0  0  0  0  0
    3.3213    4.5838    9.7241 C   0  0  0  0  0  0  0  0  0  0  0  0
    1.9528    4.8782    9.6117 C   0  0  0  0  0  0  0  0  0  0  0  0
    1.0377    4.3501   10.5453 C   0  0  0  0  0  0  0  0  0  0  0  0
    1.5114    3.5080   11.5775 C   0  0  0  0  0  0  0  0  0  0  0  0
   -0.4252    4.6377   10.3912 C   0  0  0  0  0  0  0  0  0  0  0  0
   -0.9163    4.7148    9.2668 O   0  0  0  0  0  0  0  0  0  0  0  0
   -1.0887    4.8496   11.5448 N   0  0  0  0  0  0  0  0  0  0  0  0
   -2.4699    5.1309   11.7469 C   0  0  0  0  0  0  0  0  0  0  0  0
   -3.4645    4.9419   10.7601 C   0  0  0  0  0  0  0  0  0  0  0  0
   -4.8080    5.2631   11.0294 C   0  0  0  0  0  0  0  0  0  0  0  0
   -5.2006    5.7633   12.2903 C   0  0  0  0  0  0  0  0  0  0  0  0
   -4.2071    5.9160   13.2848 C   0  0  0  0  0  0  0  0  0  0  0  0
   -2.8589    5.6039   13.0175 C   0  0  0  0  0  0  0  0  0  0  0  0
   -6.6105    6.1121   12.5560 C   0  0  0  0  0  0  0  0  0  0  0  0
   -7.2032    6.4041   13.8176 C   0  0  0  0  0  0  0  0  0  0  0  0
   -8.4943    6.6798   13.7131 N   0  0  0  0  0  0  0  0  0  0  0  0
   -8.7472    6.5526   12.3932 N   0  0  0  0  0  0  0  0  0  0  0  0
   -7.6344    6.2107   11.6567 C   0  0  0  0  0  0  0  0  0  0  0  0
   -0.2038   -0.1057   13.3443 C   0  0  0  0  0  0  0  0  0  0  0  0
   -1.6152   -0.2510   13.4177 C   0  0  0  0  0  0  0  0  0  0  0  0
   -2.5052    0.4929   12.6677 O   0  0  0  0  0  0  0  0  0  0  0  0
   -1.9832    1.3407   11.6536 C   0  0  0  0  0  0  0  0  0  0  0  0
   -5.2214   -2.0911   15.2469 H   0  0  0  0  0  0  0  0  0  0  0  0
   -3.8677   -3.1975   15.0745 H   0  0  0  0  0  0  0  0  0  0  0  0
   -3.8434   -1.9335   16.3257 H   0  0  0  0  0  0  0  0  0  0  0  0
   -1.6935   -2.7442   15.7728 H   0  0  0  0  0  0  0  0  0  0  0  0
    0.7121   -2.4536   15.6441 H   0  0  0  0  0  0  0  0  0  0  0  0
    2.5081   -1.4354   14.8040 H   0  0  0  0  0  0  0  0  0  0  0  0
    5.2891    3.2279   13.1184 H   0  0  0  0  0  0  0  0  0  0  0  0
    6.8984    2.0928   14.9707 H   0  0  0  0  0  0  0  0  0  0  0  0
    6.6265   -0.2155   16.4910 H   0  0  0  0  0  0  0  0  0  0  0  0
    4.8311    3.5047   10.8023 H   0  0  0  0  0  0  0  0  0  0  0  0
    4.0263    4.9917    9.0178 H   0  0  0  0  0  0  0  0  0  0  0  0
    1.6101    5.5137    8.8072 H   0  0  0  0  0  0  0  0  0  0  0  0
    0.8138    3.0794   12.2838 H   0  0  0  0  0  0  0  0  0  0  0  0
   -0.5157    4.8584   12.3757 H   0  0  0  0  0  0  0  0  0  0  0  0
   -3.2297    4.5522    9.7817 H   0  0  0  0  0  0  0  0  0  0  0  0
   -5.5372    5.1189   10.2459 H   0  0  0  0  0  0  0  0  0  0  0  0
   -4.4661    6.2839   14.2669 H   0  0  0  0  0  0  0  0  0  0  0  0
   -2.1208    5.7445   13.7952 H   0  0  0  0  0  0  0  0  0  0  0  0
   -6.7464    6.4047   14.7966 H   0  0  0  0  0  0  0  0  0  0  0  0
   -9.6745    6.6906   12.0174 H   0  0  0  0  0  0  0  0  0  0  0  0
   -7.6720    6.0735   10.5855 H   0  0  0  0  0  0  0  0  0  0  0  0
    0.2171    0.6027   12.6539 H   0  0  0  0  0  0  0  0  0  0  0  0
   -2.8084    1.7998   11.1066 H   0  0  0  0  0  0  0  0  0  0  0  0
   -1.3843    2.1415   12.0844 H   0  0  0  0  0  0  0  0  0  0  0  0
   -1.3811    0.7835   10.9345 H   0  0  0  0  0  0  0  0  0  0  0  0
  1  2  1  0
  1 41  1  0
  1 42  1  0
  1 43  1  0
  2  3  1  0
  3  4  2  0
  3 38  1  0
  4  5  1  0
  4 44  1  0
  5  6  2  0
  5 45  1  0
  6  7  1  0
  6 37  1  0
  7  8  1  0
  7 46  1  0
  8  9  2  0
  8 16  1  0
  9 10  1  0
 10 11  2  0
 10 17  1  0
 11 12  1  0
 11 47  1  0
 12 13  1  0
 12 16  1  0
 13 14  2  0
 13 48  1  0
 14 15  1  0
 14 49  1  0
 15 16  2  0
 17 18  2  0
 17 22  1  0
 18 19  1  0
 18 50  1  0
 19 20  2  0
 19 51  1  0
 20 21  1  0
 20 52  1  0
 21 22  2  0
 21 23  1  0
 22 53  1  0
 23 24  2  0
 23 25  1  0
 25 26  1  0
 25 54  1  0
 26 27  2  0
 26 31  1  0
 27 28  1  0
 27 55  1  0
 28 29  2  0
 28 56  1  0
 29 30  1  0
 29 32  1  0
 30 31  2  0
 30 57  1  0
 31 58  1  0
 32 33  1  0
 32 36  2  0
 33 34  2  0
 33 59  1  0
 34 35  1  0
 35 36  1  0
 35 60  1  0
 36 61  1  0
 37 38  2  0
 37 62  1  0
 38 39  1  0
 39 40  1  0
 40 63  1  0
 40 64  1  0
 40 65  1  0
M  END
>  <s_m_entry_id>  (1) 
686

>  <IC50[nM]>  (1) 
11

>  <s_m_Source_Path>  (1) 
/projects/mai/users/kmzp800_harry/pmx_colab/docking_jobs/syk

>  <s_m_Source_File>  (1) 
tnks2_lig.sdf

>  <i_m_Source_File_Index>  (1) 
7

>  <s_m_job_name>  (1) 
glide-dock_SP_tnks2_no_const

>  <r_i_docking_score>  (1) 
-6.60000892496955

>  <r_i_glide_gscore>  (1) 
-6.60000892496955

>  <r_i_glide_emodel>  (1) 
-79.8177800851746

>  <index_string>  (1) 
6:0:0

$$$$
