30:0:0
     RDKit          3D

 43 47  0  0  1  0  0  0  0  0999 V2000
   -4.5296   -3.2285   15.4506 C   0  0  0  0  0  0  0  0  0  0  0  0
   -3.8797   -2.2670   14.6313 O   0  0  0  0  0  0  0  0  0  0  0  0
   -2.5286   -2.0820   14.8030 C   0  0  0  0  0  0  0  0  0  0  0  0
   -1.7404   -2.8291   15.7043 C   0  0  0  0  0  0  0  0  0  0  0  0
   -0.3668   -2.5796   15.8171 C   0  0  0  0  0  0  0  0  0  0  0  0
    0.2489   -1.5618   15.0668 C   0  0  0  0  0  0  0  0  0  0  0  0
    1.6146   -1.3389   15.2980 N   0  0  0  0  0  0  0  0  0  0  0  0
    2.5260   -0.4276   14.7324 C   0  0  0  0  0  0  0  0  0  0  0  0
    2.1898    0.3819   13.7584 N   0  0  0  0  0  0  0  0  0  0  0  0
    3.1189    1.2572   13.2292 C   0  0  0  0  0  0  0  0  0  0  0  0
    4.4202    1.2896   13.6804 C   0  0  0  0  0  0  0  0  0  0  0  0
    4.7536    0.4938   14.7294 N   0  0  0  0  0  0  0  0  0  0  0  0
    5.9032    0.3863   15.4852 C   0  0  0  0  0  0  0  0  0  0  0  0
    5.6064   -0.4966   16.4930 C   0  0  0  0  0  0  0  0  0  0  0  0
    4.3597   -1.0552   16.3308 N   0  0  0  0  0  0  0  0  0  0  0  0
    3.8276   -0.4078   15.2974 C   0  0  0  0  0  0  0  0  0  0  0  0
    2.6490    2.1689   12.1549 C   0  0  0  0  0  0  0  0  0  0  0  0
    3.5593    2.6719   11.1849 C   0  0  0  0  0  0  0  0  0  0  0  0
    3.1524    3.4983   10.1243 C   0  0  0  0  0  0  0  0  0  0  0  0
    1.7957    3.8640   10.0213 C   0  0  0  0  0  0  0  0  0  0  0  0
    0.9930    4.6373    9.1320 C   0  0  0  0  0  0  0  0  0  0  0  0
   -0.2623    4.6540    9.5125 N   0  0  0  0  0  0  0  0  0  0  0  0
   -0.3253    3.9137   10.6439 N   0  0  0  0  0  0  0  0  0  0  0  0
    0.8916    3.3867   11.0175 C   0  0  0  0  0  0  0  0  0  0  0  0
    1.2936    2.5530   12.0702 C   0  0  0  0  0  0  0  0  0  0  0  0
   -0.5375   -0.8209   14.1576 C   0  0  0  0  0  0  0  0  0  0  0  0
   -1.9129   -1.0869   14.0231 C   0  0  0  0  0  0  0  0  0  0  0  0
   -5.5889   -3.2539   15.1972 H   0  0  0  0  0  0  0  0  0  0  0  0
   -4.4488   -2.9723   16.5082 H   0  0  0  0  0  0  0  0  0  0  0  0
   -4.1286   -4.2302   15.2897 H   0  0  0  0  0  0  0  0  0  0  0  0
   -2.1621   -3.5995   16.3264 H   0  0  0  0  0  0  0  0  0  0  0  0
    0.2115   -3.1735   16.5069 H   0  0  0  0  0  0  0  0  0  0  0  0
    2.0183   -1.8882   16.0525 H   0  0  0  0  0  0  0  0  0  0  0  0
    5.1965    1.9351   13.2894 H   0  0  0  0  0  0  0  0  0  0  0  0
    6.7708    0.9802   15.2380 H   0  0  0  0  0  0  0  0  0  0  0  0
    6.1745   -0.7743   17.3542 H   0  0  0  0  0  0  0  0  0  0  0  0
    4.5996    2.4026   11.2356 H   0  0  0  0  0  0  0  0  0  0  0  0
    3.8815    3.8393    9.3999 H   0  0  0  0  0  0  0  0  0  0  0  0
    1.2896    5.1711    8.2404 H   0  0  0  0  0  0  0  0  0  0  0  0
   -1.2077    3.7984   11.1231 H   0  0  0  0  0  0  0  0  0  0  0  0
    0.5779    2.1886   12.7971 H   0  0  0  0  0  0  0  0  0  0  0  0
   -0.1038   -0.0470   13.5498 H   0  0  0  0  0  0  0  0  0  0  0  0
   -2.5072   -0.5289   13.3152 H   0  0  0  0  0  0  0  0  0  0  0  0
  1  2  1  0
  1 28  1  0
  1 29  1  0
  1 30  1  0
  2  3  1  0
  3  4  2  0
  3 27  1  0
  4  5  1  0
  4 31  1  0
  5  6  2  0
  5 32  1  0
  6  7  1  0
  6 26  1  0
  7  8  1  0
  7 33  1  0
  8  9  2  0
  8 16  1  0
  9 10  1  0
 10 11  2  0
 10 17  1  0
 11 12  1  0
 11 34  1  0
 12 13  1  0
 12 16  1  0
 13 14  2  0
 13 35  1  0
 14 15  1  0
 14 36  1  0
 15 16  2  0
 17 18  2  0
 17 25  1  0
 18 19  1  0
 18 37  1  0
 19 20  2  0
 19 38  1  0
 20 21  1  0
 20 24  1  0
 21 22  2  0
 21 39  1  0
 22 23  1  0
 23 24  1  0
 23 40  1  0
 24 25  2  0
 25 41  1  0
 26 27  2  0
 26 42  1  0
 27 43  1  0
M  END
>  <s_m_entry_id>  (1) 
1112

>  <IC50[nM]>  (1) 
7

>  <s_m_Source_Path>  (1) 
/projects/mai/users/kmzp800_harry/pmx_colab/docking_jobs/syk

>  <s_m_Source_File>  (1) 
tnks2_lig.sdf

>  <i_m_Source_File_Index>  (1) 
33

>  <s_m_job_name>  (1) 
glide-dock_SP_syk_mcs

>  <r_i_docking_score>  (1) 
-6.67505880572096

>  <r_i_glide_gscore>  (1) 
-6.67505880572096

>  <r_i_glide_emodel>  (1) 
-40.3602044042154

>  <index_string>  (1) 
30:0:0

$$$$
