22:0:0
     RDKit          3D

 46 49  0  0  1  0  0  0  0  0999 V2000
   34.5930   36.2420   19.9980 C   0  0  0  0  0  0  0  0  0  0  0  0
   34.5090   37.6190   20.1990 C   0  0  0  0  0  0  0  0  0  0  0  0
   34.3980   38.1240   21.4890 C   0  0  0  0  0  0  0  0  0  0  0  0
   34.3000   39.4930   21.7220 C   0  0  0  0  0  0  0  0  0  0  0  0
   34.1890   39.9540   22.9950 N   0  0  0  0  0  0  0  0  0  0  0  0
   34.1700   39.1000   24.0520 C   0  0  0  0  0  0  0  0  0  0  0  0
   34.0500   39.6240   25.3800 N   0  0  0  0  0  0  0  0  0  0  0  0
   34.2660   37.7580   23.8420 N   0  0  0  0  0  0  0  0  0  0  0  0
   34.3800   37.2460   22.5850 C   0  0  0  0  0  0  0  0  0  0  0  0
   34.4840   35.8960   22.3830 N   0  0  0  0  0  0  0  0  0  0  0  0
   34.4820   34.9910   23.5290 C   0  0  0  0  0  0  0  0  0  0  0  0
   34.6040   35.3830   21.1170 C   0  0  0  0  0  0  0  0  0  0  0  0
   34.7520   34.1400   20.9500 O   0  0  0  0  0  0  0  0  0  0  0  0
   34.0200   38.8060   26.5880 C   0  0  0  0  0  0  0  0  0  0  0  0
   35.4170   38.6950   27.2150 C   0  0  0  0  0  0  0  0  0  0  0  0
   35.3490   38.2490   28.6840 C   0  0  0  0  0  0  0  0  0  0  0  0
   34.0910   37.7010   28.9920 O   0  0  0  0  0  0  0  0  0  0  0  0
   33.1940   38.7820   28.9920 C   0  0  0  0  0  0  0  0  0  0  0  0
   32.9500   39.3040   27.5690 C   0  0  0  0  0  0  0  0  0  0  0  0
   34.7080   35.7660   18.6840 O   0  0  0  0  0  0  0  0  0  0  0  0
   38.1760   35.8850   16.3070 C   0  0  0  0  0  0  0  0  0  0  0  0
   36.9140   35.7650   15.7180 C   0  0  0  0  0  0  0  0  0  0  0  0
   35.7680   35.7330   16.5180 C   0  0  0  0  0  0  0  0  0  0  0  0
   35.8760   35.8250   17.9100 C   0  0  0  0  0  0  0  0  0  0  0  0
   37.1480   35.9350   18.4960 C   0  0  0  0  0  0  0  0  0  0  0  0
   38.2940   35.9680   17.6960 C   0  0  0  0  0  0  0  0  0  0  0  0
   34.5305   38.3041   19.3387 H   0  0  0  0  0  0  0  0  0  0  0  0
   34.3124   40.1988   20.8784 H   0  0  0  0  0  0  0  0  0  0  0  0
   33.9803   40.6458   25.4893 H   0  0  0  0  0  0  0  0  0  0  0  0
   34.4833   35.5777   24.4595 H   0  0  0  0  0  0  0  0  0  0  0  0
   33.5825   34.3588   23.4954 H   0  0  0  0  0  0  0  0  0  0  0  0
   35.3787   34.3548   23.4954 H   0  0  0  0  0  0  0  0  0  0  0  0
   33.7263   37.7827   26.3113 H   0  0  0  0  0  0  0  0  0  0  0  0
   36.0051   37.9596   26.6464 H   0  0  0  0  0  0  0  0  0  0  0  0
   35.8873   39.6888   27.1807 H   0  0  0  0  0  0  0  0  0  0  0  0
   36.1247   37.4903   28.8648 H   0  0  0  0  0  0  0  0  0  0  0  0
   35.5109   39.1296   29.3230 H   0  0  0  0  0  0  0  0  0  0  0  0
   32.2365   38.4532   29.4222 H   0  0  0  0  0  0  0  0  0  0  0  0
   33.6304   39.5954   29.5903 H   0  0  0  0  0  0  0  0  0  0  0  0
   32.9663   40.4038   27.5855 H   0  0  0  0  0  0  0  0  0  0  0  0
   31.9735   38.9281   27.2297 H   0  0  0  0  0  0  0  0  0  0  0  0
   39.0766   35.9141   15.6761 H   0  0  0  0  0  0  0  0  0  0  0  0
   36.8225   35.6957   14.6240 H   0  0  0  0  0  0  0  0  0  0  0  0
   34.7769   35.6350   16.0510 H   0  0  0  0  0  0  0  0  0  0  0  0
   37.2428   35.9955   19.5902 H   0  0  0  0  0  0  0  0  0  0  0  0
   39.2872   36.0592   18.1600 H   0  0  0  0  0  0  0  0  0  0  0  0
  1  2  2  0
  1 12  1  0
  1 20  1  0
  2  3  1  0
  2 27  1  0
  3  4  2  0
  3  9  1  0
  4  5  1  0
  4 28  1  0
  5  6  2  0
  6  7  1  0
  6  8  1  0
  7 14  1  0
  7 29  1  0
  8  9  2  0
  9 10  1  0
 10 11  1  0
 10 12  1  0
 11 30  1  0
 11 31  1  0
 11 32  1  0
 12 13  2  0
 14 15  1  0
 14 19  1  0
 14 33  1  0
 15 16  1  0
 15 34  1  0
 15 35  1  0
 16 17  1  0
 16 36  1  0
 16 37  1  0
 17 18  1  0
 18 19  1  0
 18 38  1  0
 18 39  1  0
 19 40  1  0
 19 41  1  0
 20 24  1  0
 21 26  2  0
 21 22  1  0
 21 42  1  0
 22 23  2  0
 22 43  1  0
 23 24  1  0
 23 44  1  0
 24 25  2  0
 25 26  1  0
 25 45  1  0
 26 46  1  0
M  END
>  <s_m_entry_id>  (1) 
1377

>  <MODEL>  (1) 
1

>  <REMARK>  (1) 
 VINA RESULT:    -8.666      0.000      0.000
 INTER + INTRA:         -10.823
 INTER:                 -10.186
 INTRA:                  -0.637
 UNBOUND:                -0.637
  Name = /scratch/kmzp800/tmprrg34qf3/tmpty09h8_g.pdb
  4 active torsions:
  status: ('A' for Active; 'I' for Inactive)
    1  A    between atoms: C4_4  and  O1_5
    2  A    between atoms: O1_5  and  C5_6
    3  A    between atoms: N2_12  and  C10_13
    4  A    between atoms: N4_21  and  C16_22
                            x       y       z     vdW  Elec       q    Type
                         _______ _______ _______ _____ _____    ______ ____

>  <TORSDO>  (1) 
F 3

>  <grid_id>  (1) 
p38-prepared

>  <grid_path>  (1) 
/projects/mai/users/kmzp800_harry/pmx_colab/docking_jobs/p38/vina_docking/input_files/p38_vina.pdbqt

>  <grid_filename>  (1) 
p38_vina.pdbqt

>  <docking_score>  (1) 
-8.666

>  <compound_name>  (1) 
lig_p38a_3flz

>  <index_string>  (1) 
22:0:0

>  <s_m_Source_Path>  (1) 
/projects/mai/users/kmzp800_harry/pmx_colab/docking_jobs/p38

>  <s_m_Source_File>  (1) 
p38_confs_vina_naive.sdf

>  <i_m_Source_File_Index>  (1) 
24

$$$$
