15:0:0
     RDKit          3D

 41 43  0  0  1  0  0  0  0  0999 V2000
  -14.1470  -20.8470  -25.1760 C   0  0  0  0  0  0  0  0  0  0  0  0
  -14.4300  -22.0340  -25.8800 C   0  0  0  0  0  0  0  0  0  0  0  0
  -15.2140  -19.9730  -24.8960 C   0  0  0  0  0  0  0  0  0  0  0  0
  -15.7290  -22.2890  -26.3420 C   0  0  0  0  0  0  0  0  0  0  0  0
  -13.4050  -22.9770  -26.1080 N   0  0  0  0  0  0  0  0  0  0  0  0
  -16.5100  -20.2600  -25.3250 C   0  0  0  0  0  0  0  0  0  0  0  0
  -16.7740  -21.4100  -26.0650 C   0  0  0  0  0  0  0  0  0  0  0  0
  -15.9760  -23.5460  -27.1440 C   0  0  0  0  0  0  0  0  0  0  0  0
  -14.8900  -24.3630  -27.1550 N   0  0  0  0  0  0  0  0  0  0  0  0
  -17.0060  -23.8150  -27.7600 O   0  0  0  0  0  0  0  0  0  0  0  0
  -13.6130  -24.1110  -26.6970 C   0  0  0  0  0  0  0  0  0  0  0  0
  -12.5400  -25.1090  -26.9270 C   0  0  0  0  0  0  0  0  0  0  0  0
  -12.0660  -25.3240  -28.2290 C   0  0  0  0  0  0  0  0  0  0  0  0
  -11.0470  -26.2330  -28.4730 C   0  0  0  0  0  0  0  0  0  0  0  0
  -10.4710  -26.9560  -27.4250 C   0  0  0  0  0  0  0  0  0  0  0  0
  -10.9550  -26.7630  -26.1250 C   0  0  0  0  0  0  0  0  0  0  0  0
  -11.9810  -25.8530  -25.8770 C   0  0  0  0  0  0  0  0  0  0  0  0
   -9.2650  -27.8760  -27.6890 C   0  0  0  0  0  0  0  0  0  0  0  0
   -8.1980  -27.7970  -26.5970 C   0  0  0  0  0  0  0  0  0  0  0  0
   -8.6980  -27.5530  -29.0730 C   0  0  0  0  0  0  0  0  0  0  0  0
   -9.5740  -29.2540  -27.6920 O   0  0  0  0  0  0  0  0  0  0  0  0
  -12.8490  -20.6150  -24.7480 O   0  0  0  0  0  0  0  0  0  0  0  0
  -12.5510  -19.4150  -24.0360 C   0  0  0  0  0  0  0  0  0  0  0  0
  -15.0231  -19.0493  -24.3301 H   0  0  0  0  0  0  0  0  0  0  0  0
  -17.3312  -19.5716  -25.0765 H   0  0  0  0  0  0  0  0  0  0  0  0
  -17.7917  -21.6210  -26.4252 H   0  0  0  0  0  0  0  0  0  0  0  0
  -15.0407  -25.2977  -27.5605 H   0  0  0  0  0  0  0  0  0  0  0  0
  -12.5076  -24.7650  -29.0672 H   0  0  0  0  0  0  0  0  0  0  0  0
  -10.6888  -26.3862  -29.5017 H   0  0  0  0  0  0  0  0  0  0  0  0
  -10.5212  -27.3352  -25.2917 H   0  0  0  0  0  0  0  0  0  0  0  0
  -12.3549  -25.7172  -24.8515 H   0  0  0  0  0  0  0  0  0  0  0  0
   -8.6809  -27.8328  -25.6093 H   0  0  0  0  0  0  0  0  0  0  0  0
   -7.5064  -28.6464  -26.6980 H   0  0  0  0  0  0  0  0  0  0  0  0
   -7.6390  -26.8550  -26.6980 H   0  0  0  0  0  0  0  0  0  0  0  0
   -7.7471  -27.0113  -28.9624 H   0  0  0  0  0  0  0  0  0  0  0  0
   -8.5251  -28.4882  -29.6258 H   0  0  0  0  0  0  0  0  0  0  0  0
   -9.4142  -26.9274  -29.6258 H   0  0  0  0  0  0  0  0  0  0  0  0
   -9.6466  -29.5779  -26.7593 H   0  0  0  0  0  0  0  0  0  0  0  0
  -12.5992  -19.6089  -22.9543 H   0  0  0  0  0  0  0  0  0  0  0  0
  -11.5404  -19.0719  -24.3024 H   0  0  0  0  0  0  0  0  0  0  0  0
  -13.2837  -18.6390  -24.3024 H   0  0  0  0  0  0  0  0  0  0  0  0
  1  3  2  0
  1 22  1  0
  1  2  1  0
  2  4  2  0
  2  5  1  0
  3  6  1  0
  4  7  1  0
  4  8  1  0
  5 11  2  0
  6  7  2  0
  8  9  1  0
  8 10  2  0
  9 11  1  0
 11 12  1  0
 12 17  1  0
 12 13  2  0
 13 14  1  0
 14 15  2  0
 15 16  1  0
 15 18  1  0
 16 17  2  0
 18 19  1  0
 18 20  1  0
 18 21  1  0
 22 23  1  0
  3 24  1  0
  6 25  1  0
  7 26  1  0
  9 27  1  0
 13 28  1  0
 14 29  1  0
 16 30  1  0
 17 31  1  0
 19 32  1  0
 19 33  1  0
 19 34  1  0
 20 35  1  0
 20 36  1  0
 20 37  1  0
 21 38  1  0
 23 39  1  0
 23 40  1  0
 23 41  1  0
M  END
>  <s_m_entry_id>  (1) 
2461

>  <MODEL>  (1) 
12

>  <REMARK>  (1) 
 VINA RESULT:    -7.206      2.451      7.378
 INTER + INTRA:          -7.831
 INTER:                  -7.333
 INTRA:                  -0.498
 UNBOUND:                 0.849
  Name = 5h
  7 active torsions:
  status: ('A' for Active; 'I' for Inactive)
    1  A    between atoms: C_1  and  O_22
    2  A    between atoms: C_11  and  C_12
    3  A    between atoms: C_15  and  C_18
    4  A    between atoms: C_18  and  O_19
    5  A    between atoms: C_18  and  C_20
    6  A    between atoms: C_18  and  C_21
    7  A    between atoms: O_22  and  C_23
                            x       y       z     vdW  Elec       q    Type
                         _______ _______ _______ _____ _____    ______ ____

>  <TORSDO>  (1) 
F 4

>  <s_m_Source_Path>  (1) 
/projects/mai/users/kmzp800_harry/pmx_colab/docking_jobs/tnks2/vina_prep/output_mcs

>  <s_m_Source_File>  (1) 
tnks_mcs_vina__all_poses.sdf

>  <i_m_Source_File_Index>  (1) 
79

>  <index_string>  (1) 
15:0:0

$$$$
