12:0:0
     RDKit          3D

 40 42  0  0  1  0  0  0  0  0999 V2000
  -14.5980  -14.3000  -27.4850 C   0  0  0  0  0  0  0  0  0  0  0  0
  -15.1290  -15.2030  -26.5470 C   0  0  0  0  0  0  0  0  0  0  0  0
  -14.8690  -12.9340  -27.3450 C   0  0  0  0  0  0  0  0  0  0  0  0
  -15.9850  -14.7350  -25.5400 C   0  0  0  0  0  0  0  0  0  0  0  0
  -14.7840  -16.5690  -26.6010 N   0  0  0  0  0  0  0  0  0  0  0  0
  -15.6850  -12.4770  -26.3120 C   0  0  0  0  0  0  0  0  0  0  0  0
  -16.2650  -13.3760  -25.4160 C   0  0  0  0  0  0  0  0  0  0  0  0
  -16.5870  -15.7370  -24.5840 C   0  0  0  0  0  0  0  0  0  0  0  0
  -16.0510  -16.9740  -24.7420 N   0  0  0  0  0  0  0  0  0  0  0  0
  -17.4860  -15.5080  -23.7750 O   0  0  0  0  0  0  0  0  0  0  0  0
  -15.2030  -17.4300  -25.7310 C   0  0  0  0  0  0  0  0  0  0  0  0
  -13.6950  -14.7590  -28.6260 C   0  0  0  0  0  0  0  0  0  0  0  0
  -14.8500  -18.8670  -25.7810 C   0  0  0  0  0  0  0  0  0  0  0  0
  -15.5440  -19.7140  -26.6560 C   0  0  0  0  0  0  0  0  0  0  0  0
  -15.2270  -21.0620  -26.7430 C   0  0  0  0  0  0  0  0  0  0  0  0
  -14.2060  -21.6040  -25.9610 C   0  0  0  0  0  0  0  0  0  0  0  0
  -13.5210  -20.7690  -25.0690 C   0  0  0  0  0  0  0  0  0  0  0  0
  -13.8410  -19.4160  -24.9760 C   0  0  0  0  0  0  0  0  0  0  0  0
  -13.7850  -23.0730  -26.1400 C   0  0  0  0  0  0  0  0  0  0  0  0
  -12.9510  -23.5970  -24.9690 C   0  0  0  0  0  0  0  0  0  0  0  0
  -13.0580  -23.2150  -27.4790 C   0  0  0  0  0  0  0  0  0  0  0  0
  -14.8640  -23.9860  -26.1620 O   0  0  0  0  0  0  0  0  0  0  0  0
  -14.4345  -12.2157  -28.0558 H   0  0  0  0  0  0  0  0  0  0  0  0
  -15.8735  -11.3989  -26.2019 H   0  0  0  0  0  0  0  0  0  0  0  0
  -16.9351  -13.0159  -24.6215 H   0  0  0  0  0  0  0  0  0  0  0  0
  -16.3128  -17.6669  -24.0263 H   0  0  0  0  0  0  0  0  0  0  0  0
  -12.7866  -15.2207  -28.2117 H   0  0  0  0  0  0  0  0  0  0  0  0
  -14.2307  -15.4942  -29.2445 H   0  0  0  0  0  0  0  0  0  0  0  0
  -13.4167  -13.8929  -29.2445 H   0  0  0  0  0  0  0  0  0  0  0  0
  -16.3506  -19.3046  -27.2820 H   0  0  0  0  0  0  0  0  0  0  0  0
  -15.7856  -21.7095  -27.4348 H   0  0  0  0  0  0  0  0  0  0  0  0
  -12.7232  -21.1851  -24.4362 H   0  0  0  0  0  0  0  0  0  0  0  0
  -13.2986  -18.7740  -24.2664 H   0  0  0  0  0  0  0  0  0  0  0  0
  -13.4232  -23.3003  -24.0208 H   0  0  0  0  0  0  0  0  0  0  0  0
  -12.8930  -24.6942  -25.0222 H   0  0  0  0  0  0  0  0  0  0  0  0
  -11.9373  -23.1732  -25.0222 H   0  0  0  0  0  0  0  0  0  0  0  0
  -11.9931  -23.4230  -27.2978 H   0  0  0  0  0  0  0  0  0  0  0  0
  -13.5013  -24.0435  -28.0509 H   0  0  0  0  0  0  0  0  0  0  0  0
  -13.1570  -22.2806  -28.0509 H   0  0  0  0  0  0  0  0  0  0  0  0
  -15.1270  -24.2085  -25.2339 H   0  0  0  0  0  0  0  0  0  0  0  0
  1  3  2  0
  1  2  1  0
  1 12  1  0
  2  4  2  0
  2  5  1  0
  3  6  1  0
  4  7  1  0
  4  8  1  0
  5 11  2  0
  6  7  2  0
  8 10  2  0
  8  9  1  0
  9 11  1  0
 11 13  1  0
 13 18  1  0
 13 14  2  0
 14 15  1  0
 15 16  2  0
 16 17  1  0
 16 19  1  0
 17 18  2  0
 19 20  1  0
 19 21  1  0
 19 22  1  0
  3 23  1  0
  6 24  1  0
  7 25  1  0
  9 26  1  0
 12 27  1  0
 12 28  1  0
 12 29  1  0
 14 30  1  0
 15 31  1  0
 17 32  1  0
 18 33  1  0
 20 34  1  0
 20 35  1  0
 20 36  1  0
 21 37  1  0
 21 38  1  0
 21 39  1  0
 22 40  1  0
M  END
>  <s_m_entry_id>  (1) 
2444

>  <MODEL>  (1) 
2

>  <REMARK>  (1) 
 VINA RESULT:    -9.387      0.714      0.962
 INTER + INTRA:         -11.201
 INTER:                 -10.778
 INTRA:                  -0.423
 UNBOUND:                -0.442
  Name = 5i
  6 active torsions:
  status: ('A' for Active; 'I' for Inactive)
    1  A    between atoms: C_1  and  C_22
    2  A    between atoms: C_11  and  C_12
    3  A    between atoms: C_15  and  C_18
    4  A    between atoms: C_18  and  O_19
    5  A    between atoms: C_18  and  C_20
    6  A    between atoms: C_18  and  C_21
                            x       y       z     vdW  Elec       q    Type
                         _______ _______ _______ _____ _____    ______ ____

>  <TORSDO>  (1) 
F 3

>  <s_m_Source_Path>  (1) 
/projects/mai/users/kmzp800_harry/pmx_colab/docking_jobs/tnks2/vina_prep/output_mcs

>  <s_m_Source_File>  (1) 
tnks_mcs_vina__all_poses.sdf

>  <i_m_Source_File_Index>  (1) 
62

>  <index_string>  (1) 
12:0:0

$$$$
