lig_p38a_2l
                    3D
 Schrodinger Suite 2021-4.
 49 52  0  0  1  0            999 V2000
   33.5740   35.9800   20.0990 C   0  0  0  0  0  0
   33.5040   37.3650   20.2400 C   0  0  0  0  0  0
   33.2810   37.9230   21.4910 C   0  0  0  0  0  0
   33.1920   39.3030   21.6610 C   0  0  0  0  0  0
   32.9650   39.8180   22.8970 N   0  0  0  0  0  0
   32.8200   39.0070   23.9790 C   0  0  0  0  0  0
   32.5770   39.5850   25.2670 N   0  0  0  0  0  0
   32.9060   37.6570   23.8310 N   0  0  0  0  0  0
   33.1320   37.0910   22.6140 C   0  0  0  0  0  0
   33.2250   35.7320   22.4760 N   0  0  0  0  0  0
   33.4550   35.1660   21.2470 C   0  0  0  0  0  0
   33.5820   33.9140   21.1430 O   0  0  0  0  0  0
   32.3950   38.8120   26.4910 C   0  0  0  0  0  0
   31.0080   38.1550   26.5310 C   0  0  0  0  0  0
   30.6120   37.7420   27.9550 C   0  0  0  0  0  0
   31.7290   37.7150   28.8080 O   0  0  0  0  0  0
   32.0910   39.0580   29.0040 C   0  0  0  0  0  0
   32.7050   39.6610   27.7320 C   0  0  0  0  0  0
   33.0760   34.8720   23.6500 C   0  0  0  0  0  0
   31.6230   34.4700   23.8240 C   0  0  0  0  0  0
   33.8050   35.4520   18.8210 O   0  0  0  0  0  0
   37.3930   35.9940   18.1330 C   0  0  0  0  0  0
   36.1750   35.8590   18.8060 C   0  0  0  0  0  0
   35.0020   35.5660   18.1010 C   0  0  0  0  0  0
   35.0550   35.4380   16.6970 C   0  0  0  0  0  0
   33.9320   35.2250   15.9690 F   0  0  0  0  0  0
   36.2760   35.5750   16.0280 C   0  0  0  0  0  0
   37.4440   35.8450   16.7460 C   0  0  0  0  0  0
   38.6240   35.9740   16.0940 F   0  0  0  0  0  0
   33.6254   38.0149   19.3608 H   0  0  0  0  0  0
   33.3053   39.9736   20.7964 H   0  0  0  0  0  0
   32.5276   40.6117   25.3332 H   0  0  0  0  0  0
   33.1220   37.9865   26.4967 H   0  0  0  0  0  0
   30.2646   38.8697   26.1482 H   0  0  0  0  0  0
   31.0421   37.2479   25.9097 H   0  0  0  0  0  0
   29.8794   38.4631   28.3466 H   0  0  0  0  0  0
   30.1803   36.7310   27.9160 H   0  0  0  0  0  0
   31.1950   39.6345   29.2776 H   0  0  0  0  0  0
   32.8417   39.1019   29.8068 H   0  0  0  0  0  0
   33.7961   39.7223   27.8579 H   0  0  0  0  0  0
   32.2675   40.6589   27.5813 H   0  0  0  0  0  0
   33.6898   33.9686   23.5189 H   0  0  0  0  0  0
   33.4053   35.4234   24.5430 H   0  0  0  0  0  0
   31.3865   34.4046   24.8963 H   0  0  0  0  0  0
   30.9751   35.2226   23.3509 H   0  0  0  0  0  0
   31.4541   33.4914   23.3509 H   0  0  0  0  0  0
   38.3109   36.2176   18.6964 H   0  0  0  0  0  0
   36.1383   35.9841   19.8983 H   0  0  0  0  0  0
   36.3167   35.4699   14.9338 H   0  0  0  0  0  0
  1  2  2  0  0  0
  1 11  1  0  0  0
  1 21  1  0  0  0
  2  3  1  0  0  0
  2 30  1  0  0  0
  3  4  2  0  0  0
  3  9  1  0  0  0
  4  5  1  0  0  0
  4 31  1  0  0  0
  5  6  2  0  0  0
  6  7  1  0  0  0
  6  8  1  0  0  0
  7 13  1  0  0  0
  7 32  1  0  0  0
  8  9  2  0  0  0
  9 10  1  0  0  0
 10 19  1  0  0  0
 10 11  1  0  0  0
 11 12  2  0  0  0
 13 14  1  0  0  0
 13 18  1  0  0  0
 13 33  1  0  0  0
 14 15  1  0  0  0
 14 34  1  0  0  0
 14 35  1  0  0  0
 15 16  1  0  0  0
 15 36  1  0  0  0
 15 37  1  0  0  0
 16 17  1  0  0  0
 17 18  1  0  0  0
 17 38  1  0  0  0
 17 39  1  0  0  0
 18 40  1  0  0  0
 18 41  1  0  0  0
 19 20  1  0  0  0
 19 42  1  0  0  0
 19 43  1  0  0  0
 20 44  1  0  0  0
 20 45  1  0  0  0
 20 46  1  0  0  0
 21 24  1  0  0  0
 22 23  2  0  0  0
 22 28  1  0  0  0
 22 47  1  0  0  0
 23 24  1  0  0  0
 23 48  1  0  0  0
 24 25  2  0  0  0
 25 26  1  0  0  0
 25 27  1  0  0  0
 27 28  2  0  0  0
 27 49  1  0  0  0
 28 29  1  0  0  0
M  END
> <s_m_entry_id>
1455

> <MODEL>
1

> <REMARK>
 VINA RESULT:    -8.679      0.000      0.000
 INTER + INTRA:         -11.245
 INTER:                 -10.708
 INTRA:                  -0.537
 UNBOUND:                -0.537
  Name = /scratch/kmzp800/tmpn5ssn6xj/tmpcp_unikm.pdb
  5 active torsions:
  status: ('A' for Active; 'I' for Inactive)
    1  A    between atoms: C3_3  and  O1_4
    2  A    between atoms: O1_4  and  C4_5
    3  A    between atoms: N2_11  and  C9_12
    4  A    between atoms: N4_20  and  C15_21
    5  A    between atoms: C15_21  and  C16_22
                            x       y       z     vdW  Elec       q    Type
                         _______ _______ _______ _____ _____    ______ ____

> <TORSDO>
F 4

> <grid_id>
p38-prepared

> <grid_path>
/projects/mai/users/kmzp800_harry/pmx_colab/docking_jobs/p38/vina_docking/input_files/p38_vina.pdbqt

> <grid_filename>
p38_vina.pdbqt

> <docking_score>
-8.679

> <compound_name>
lig_p38a_2l

> <index_string>
0:0:0

> <s_m_Source_Path>
/projects/mai/users/kmzp800_harry/pmx_colab/docking_jobs/p38/gmx_prep

> <s_m_Source_File>
prepared_vina_naive_confs.sdf

> <i_m_Source_File_Index>
1

> <s_m_entry_id>
1354

> <s_m_Source_Path>
/projects/mai/users/kmzp800_harry/pmx_colab/docking_jobs/p38

> <s_m_Source_File>
p38_confs_vina_naive.sdf

> <i_m_Source_File_Index>
1

$$$$
lig_p38a_3fmh
                    3D
 Schrodinger Suite 2021-4.
 46 49  0  0  1  0            999 V2000
   34.4470   39.5410   25.8700 N   0  0  0  0  0  0
   34.3760   39.0300   24.5380 C   0  0  0  0  0  0
   34.0900   39.8740   23.5110 N   0  0  0  0  0  0
   34.0130   39.4220   22.2330 C   0  0  0  0  0  0
   34.2270   38.0740   21.9620 C   0  0  0  0  0  0
   34.1600   37.5810   20.6650 C   0  0  0  0  0  0
   34.3890   36.2270   20.4230 C   0  0  0  0  0  0
   34.6520   35.3690   21.5140 C   0  0  0  0  0  0
   34.7970   34.1320   21.3150 O   0  0  0  0  0  0
   34.7240   35.8730   22.7870 N   0  0  0  0  0  0
   35.0110   34.9740   23.9010 C   0  0  0  0  0  0
   34.5190   37.2050   23.0280 C   0  0  0  0  0  0
   34.5850   37.7070   24.2920 N   0  0  0  0  0  0
   34.7730   38.7080   27.0180 C   0  0  1  0  0  0
   35.9370   39.3170   27.7820 C   0  0  0  0  0  0
   33.5560   38.6040   27.9230 C   0  0  0  0  0  0
   31.0600   36.8620   26.1470 C   0  0  0  0  0  0
   30.5900   38.1240   26.0430 N   0  0  0  0  0  0
   31.4530   38.8870   26.6910 N   0  0  0  0  0  0
   32.4080   38.1170   27.1770 N   0  0  3  0  0  0
   32.2070   36.8520   26.8570 N   0  0  0  0  0  0
   34.3080   35.7640   19.1020 O   0  0  0  0  0  0
   35.3570   35.7770   18.1730 C   0  0  0  0  0  0
   36.6620   35.9610   18.6470 C   0  0  0  0  0  0
   37.7430   35.9710   17.7620 C   0  0  0  0  0  0
   37.5290   35.7890   16.3940 C   0  0  0  0  0  0
   38.5770   35.8000   15.5370 F   0  0  0  0  0  0
   36.2340   35.5820   15.9120 C   0  0  0  0  0  0
   35.1480   35.5700   16.7930 C   0  0  0  0  0  0
   33.9100   35.3190   16.3020 F   0  0  0  0  0  0
   34.2594   40.5419   26.0246 H   0  0  0  0  0  0
   33.7821   40.1194   21.4142 H   0  0  0  0  0  0
   33.9266   38.2579   19.8299 H   0  0  0  0  0  0
   34.8424   35.5021   24.8511 H   0  0  0  0  0  0
   34.3478   34.0982   23.8456 H   0  0  0  0  0  0
   36.0590   34.6444   23.8456 H   0  0  0  0  0  0
   35.0602   37.7032   26.6745 H   0  0  0  0  0  0
   35.7559   39.2222   28.8628 H   0  0  0  0  0  0
   36.8652   38.7890   27.5181 H   0  0  0  0  0  0
   36.0325   40.3806   27.5181 H   0  0  0  0  0  0
   33.7751   37.9076   28.7458 H   0  0  0  0  0  0
   33.3234   39.6019   28.3230 H   0  0  0  0  0  0
   30.5779   35.9723   25.7157 H   0  0  0  0  0  0
   36.8371   36.0987   19.7242 H   0  0  0  0  0  0
   38.7637   36.1224   18.1431 H   0  0  0  0  0  0
   36.0681   35.4279   14.8356 H   0  0  0  0  0  0
  1 14  1  0  0  0
  1  2  1  0  0  0
  1 31  1  0  0  0
  2  3  2  0  0  0
  2 13  1  0  0  0
  3  4  1  0  0  0
  4  5  2  0  0  0
  4 32  1  0  0  0
  5 12  1  0  0  0
  5  6  1  0  0  0
  6  7  2  0  0  0
  6 33  1  0  0  0
  7  8  1  0  0  0
  7 22  1  0  0  0
  8 10  1  0  0  0
  8  9  2  0  0  0
 10 12  1  0  0  0
 10 11  1  0  0  0
 11 34  1  0  0  0
 11 35  1  0  0  0
 11 36  1  0  0  0
 12 13  2  0  0  0
 14 15  1  0  0  0
 14 16  1  0  0  0
 14 37  1  0  0  0
 15 38  1  0  0  0
 15 39  1  0  0  0
 15 40  1  0  0  0
 16 20  1  0  0  0
 16 41  1  0  0  0
 16 42  1  0  0  0
 17 21  2  0  0  0
 17 18  1  0  0  0
 17 43  1  0  0  0
 18 19  2  0  0  0
 19 20  1  0  0  0
 20 21  1  0  0  0
 22 23  1  0  0  0
 23 24  2  0  0  0
 23 29  1  0  0  0
 24 25  1  0  0  0
 24 44  1  0  0  0
 25 26  2  0  0  0
 25 45  1  0  0  0
 26 27  1  0  0  0
 26 28  1  0  0  0
 28 29  2  0  0  0
 28 46  1  0  0  0
 29 30  1  0  0  0
M  END
> <s_m_entry_id>
1456

> <MODEL>
1

> <REMARK>
 VINA RESULT:    -8.497      0.000      0.000
 INTER + INTRA:         -12.195
 INTER:                 -10.980
 INTRA:                  -1.214
 UNBOUND:                -1.214
  Name = /scratch/kmzp800/tmpj_xvpnex/tmppxvt518r.pdb
  7 active torsions:
  status: ('A' for Active; 'I' for Inactive)
    1  A    between atoms: N3_4  and  C2_5
    2  A    between atoms: C2_5  and  C3_6
    3  A    between atoms: C3_6  and  N4_7
    4  A    between atoms: C3_6  and  C18_29
    5  A    between atoms: C8_13  and  O1_14
    6  A    between atoms: O1_14  and  C9_15
    7  A    between atoms: N6_25  and  C16_26
                            x       y       z     vdW  Elec       q    Type
                         _______ _______ _______ _____ _____    ______ ____

> <TORSDO>
F 5

> <grid_id>
p38-prepared

> <grid_path>
/projects/mai/users/kmzp800_harry/pmx_colab/docking_jobs/p38/vina_docking/input_files/p38_vina.pdbqt

> <grid_filename>
p38_vina.pdbqt

> <docking_score>
-8.497

> <compound_name>
lig_p38a_3fmh

> <index_string>
1:0:0

> <s_m_Source_Path>
/projects/mai/users/kmzp800_harry/pmx_colab/docking_jobs/p38/gmx_prep

> <s_m_Source_File>
prepared_vina_naive_confs.sdf

> <i_m_Source_File_Index>
2

> <s_m_entry_id>
1355

> <s_m_Source_Path>
/projects/mai/users/kmzp800_harry/pmx_colab/docking_jobs/p38

> <s_m_Source_File>
p38_confs_vina_naive.sdf

> <i_m_Source_File_Index>
2

$$$$
lig_p38a_3fln
                    3D
 Schrodinger Suite 2021-4.
 46 49  0  0  1  0            999 V2000
   33.5460   35.9730   20.0900 C   0  0  0  0  0  0
   33.4820   37.3590   20.2230 C   0  0  0  0  0  0
   33.2660   37.9260   21.4730 C   0  0  0  0  0  0
   33.1860   39.3060   21.6350 C   0  0  0  0  0  0
   32.9700   39.8290   22.8700 N   0  0  0  0  0  0
   32.8280   39.0250   23.9580 C   0  0  0  0  0  0
   32.6010   39.6130   25.2440 N   0  0  0  0  0  0
   32.9050   37.6740   23.8170 N   0  0  0  0  0  0
   33.1200   37.1000   22.6010 C   0  0  0  0  0  0
   33.2050   35.7400   22.4680 N   0  0  0  0  0  0
   33.0690   34.8910   23.6490 C   0  0  0  0  0  0
   33.4270   35.1660   21.2440 C   0  0  0  0  0  0
   33.5480   33.9130   21.1450 O   0  0  0  0  0  0
   32.4350   38.8530   26.4780 C   0  0  0  0  0  0
   31.0490   38.1970   26.5420 C   0  0  0  0  0  0
   30.6740   37.7910   27.9750 C   0  0  0  0  0  0
   31.8050   37.7700   28.8100 O   0  0  0  0  0  0
   32.1700   39.1150   28.9930 C   0  0  0  0  0  0
   32.7600   39.7120   27.7070 C   0  0  0  0  0  0
   33.7700   35.4370   18.8140 O   0  0  0  0  0  0
   37.3530   35.9730   18.0950 C   0  0  0  0  0  0
   36.1420   35.8380   18.7790 C   0  0  0  0  0  0
   34.9610   35.5510   18.0840 C   0  0  0  0  0  0
   35.0010   35.4300   16.6790 C   0  0  0  0  0  0
   33.8700   35.2220   15.9610 F   0  0  0  0  0  0
   36.2150   35.5660   16.0000 C   0  0  0  0  0  0
   37.3910   35.8290   16.7070 C   0  0  0  0  0  0
   38.5650   35.9590   16.0450 F   0  0  0  0  0  0
   33.6023   38.0031   19.3395 H   0  0  0  0  0  0
   33.2973   39.9710   20.7659 H   0  0  0  0  0  0
   32.5517   40.6402   25.3013 H   0  0  0  0  0  0
   33.1675   35.5058   24.5558 H   0  0  0  0  0  0
   32.0817   34.4060   23.6402 H   0  0  0  0  0  0
   33.8554   34.1219   23.6402 H   0  0  0  0  0  0
   33.1634   38.0287   26.4820 H   0  0  0  0  0  0
   30.3002   38.9101   26.1668 H   0  0  0  0  0  0
   31.0734   37.2868   25.9248 H   0  0  0  0  0  0
   29.9468   38.5135   28.3740 H   0  0  0  0  0  0
   30.2417   36.7799   27.9487 H   0  0  0  0  0  0
   31.2789   39.6924   29.2803 H   0  0  0  0  0  0
   32.9353   39.1633   29.7816 H   0  0  0  0  0  0
   33.8526   39.7801   27.8148 H   0  0  0  0  0  0
   32.3145   40.7064   27.5563 H   0  0  0  0  0  0
   38.2767   36.1928   18.6505 H   0  0  0  0  0  0
   36.1164   35.9582   19.8721 H   0  0  0  0  0  0
   36.2447   35.4656   14.9050 H   0  0  0  0  0  0
  1  2  2  0  0  0
  1 12  1  0  0  0
  1 20  1  0  0  0
  2  3  1  0  0  0
  2 29  1  0  0  0
  3  4  2  0  0  0
  3  9  1  0  0  0
  4  5  1  0  0  0
  4 30  1  0  0  0
  5  6  2  0  0  0
  6  7  1  0  0  0
  6  8  1  0  0  0
  7 14  1  0  0  0
  7 31  1  0  0  0
  8  9  2  0  0  0
  9 10  1  0  0  0
 10 11  1  0  0  0
 10 12  1  0  0  0
 11 32  1  0  0  0
 11 33  1  0  0  0
 11 34  1  0  0  0
 12 13  2  0  0  0
 14 15  1  0  0  0
 14 19  1  0  0  0
 14 35  1  0  0  0
 15 16  1  0  0  0
 15 36  1  0  0  0
 15 37  1  0  0  0
 16 17  1  0  0  0
 16 38  1  0  0  0
 16 39  1  0  0  0
 17 18  1  0  0  0
 18 19  1  0  0  0
 18 40  1  0  0  0
 18 41  1  0  0  0
 19 42  1  0  0  0
 19 43  1  0  0  0
 20 23  1  0  0  0
 21 22  2  0  0  0
 21 27  1  0  0  0
 21 44  1  0  0  0
 22 23  1  0  0  0
 22 45  1  0  0  0
 23 24  2  0  0  0
 24 25  1  0  0  0
 24 26  1  0  0  0
 26 27  2  0  0  0
 26 46  1  0  0  0
 27 28  1  0  0  0
M  END
> <s_m_entry_id>
1457

> <MODEL>
1

> <REMARK>
 VINA RESULT:    -8.873      0.000      0.000
 INTER + INTRA:         -10.884
 INTER:                 -10.429
 INTRA:                  -0.454
 UNBOUND:                -0.454
  Name = /scratch/kmzp800/tmpsekqvmh1/tmp3vgt7uig.pdb
  4 active torsions:
  status: ('A' for Active; 'I' for Inactive)
    1  A    between atoms: C3_3  and  O1_4
    2  A    between atoms: O1_4  and  C4_5
    3  A    between atoms: N2_11  and  C9_12
    4  A    between atoms: N4_20  and  C15_21
                            x       y       z     vdW  Elec       q    Type
                         _______ _______ _______ _____ _____    ______ ____

> <TORSDO>
F 3

> <grid_id>
p38-prepared

> <grid_path>
/projects/mai/users/kmzp800_harry/pmx_colab/docking_jobs/p38/vina_docking/input_files/p38_vina.pdbqt

> <grid_filename>
p38_vina.pdbqt

> <docking_score>
-8.873

> <compound_name>
lig_p38a_3fln

> <index_string>
2:0:0

> <s_m_Source_Path>
/projects/mai/users/kmzp800_harry/pmx_colab/docking_jobs/p38/gmx_prep

> <s_m_Source_File>
prepared_vina_naive_confs.sdf

> <i_m_Source_File_Index>
3

> <s_m_entry_id>
1356

> <s_m_Source_Path>
/projects/mai/users/kmzp800_harry/pmx_colab/docking_jobs/p38

> <s_m_Source_File>
p38_confs_vina_naive.sdf

> <i_m_Source_File_Index>
3

$$$$
lig_p38a_2j
                    3D
 Schrodinger Suite 2021-4.
 48 51  0  0  1  0            999 V2000
   33.5040   36.0100   20.2830 C   0  0  0  0  0  0
   33.6760   37.3830   20.4530 C   0  0  0  0  0  0
   33.6660   37.9250   21.7330 C   0  0  0  0  0  0
   33.8350   39.2910   21.9390 C   0  0  0  0  0  0
   33.8190   39.7890   23.2020 N   0  0  0  0  0  0
   33.6390   38.9740   24.2760 C   0  0  0  0  0  0
   33.6280   39.5350   25.5910 N   0  0  0  0  0  0
   33.4730   37.6350   24.0930 N   0  0  0  0  0  0
   33.4810   37.0860   22.8460 C   0  0  0  0  0  0
   33.3100   35.7400   22.6680 N   0  0  0  0  0  0
   33.1160   34.8760   23.8300 C   0  0  0  0  0  0
   33.3180   35.1910   21.4110 C   0  0  0  0  0  0
   33.1580   33.9470   21.2610 O   0  0  0  0  0  0
   33.4120   38.7350   26.7910 C   0  0  0  0  0  0
   32.8490   39.6150   27.9180 C   0  0  0  0  0  0
   33.9530   40.3220   28.7200 C   0  0  0  0  0  0
   35.1840   40.2830   28.0420 O   0  0  0  0  0  0
   35.6020   38.9420   28.0890 C   0  0  0  0  0  0
   34.7250   38.0520   27.1920 C   0  0  0  0  0  0
   33.4920   35.4430   18.8980 C   0  0  0  0  0  0
   37.2320   35.8810   18.4710 C   0  0  0  0  0  0
   35.9680   35.7680   19.0550 C   0  0  0  0  0  0
   34.8340   35.5840   18.2540 C   0  0  0  0  0  0
   34.9740   35.5070   16.8590 C   0  0  0  0  0  0
   33.8890   35.3230   16.0640 F   0  0  0  0  0  0
   36.2400   35.6210   16.2770 C   0  0  0  0  0  0
   37.3670   35.8090   17.0810 C   0  0  0  0  0  0
   38.5920   35.9170   16.5140 F   0  0  0  0  0  0
   33.8190   38.0344   19.5782 H   0  0  0  0  0  0
   33.9810   39.9647   21.0818 H   0  0  0  0  0  0
   33.7792   40.5485   25.6954 H   0  0  0  0  0  0
   33.2480   35.4640   24.7502 H   0  0  0  0  0  0
   32.1006   34.4535   23.8073 H   0  0  0  0  0  0
   33.8533   34.0600   23.8073 H   0  0  0  0  0  0
   32.6695   37.9485   26.5908 H   0  0  0  0  0  0
   32.1914   40.3775   27.4751 H   0  0  0  0  0  0
   32.2999   38.9602   28.6107 H   0  0  0  0  0  0
   33.6644   41.3717   28.8779 H   0  0  0  0  0  0
   34.0705   39.8008   29.6815 H   0  0  0  0  0  0
   36.6452   38.8795   27.7457 H   0  0  0  0  0  0
   35.5118   38.5861   29.1259 H   0  0  0  0  0  0
   34.4889   37.1260   27.7368 H   0  0  0  0  0  0
   35.2898   37.8465   26.2707 H   0  0  0  0  0  0
   33.2261   34.3768   18.9473 H   0  0  0  0  0  0
   32.7536   35.9949   18.2979 H   0  0  0  0  0  0
   38.1200   36.0264   19.1037 H   0  0  0  0  0  0
   35.8629   35.8238   20.1486 H   0  0  0  0  0  0
   36.3490   35.5626   15.1840 H   0  0  0  0  0  0
  1  2  2  0  0  0
  1 12  1  0  0  0
  1 20  1  0  0  0
  2  3  1  0  0  0
  2 29  1  0  0  0
  3  4  2  0  0  0
  3  9  1  0  0  0
  4  5  1  0  0  0
  4 30  1  0  0  0
  5  6  2  0  0  0
  6  7  1  0  0  0
  6  8  1  0  0  0
  7 14  1  0  0  0
  7 31  1  0  0  0
  8  9  2  0  0  0
  9 10  1  0  0  0
 10 11  1  0  0  0
 10 12  1  0  0  0
 11 32  1  0  0  0
 11 33  1  0  0  0
 11 34  1  0  0  0
 12 13  2  0  0  0
 14 19  1  0  0  0
 14 15  1  0  0  0
 14 35  1  0  0  0
 15 16  1  0  0  0
 15 36  1  0  0  0
 15 37  1  0  0  0
 16 17  1  0  0  0
 16 38  1  0  0  0
 16 39  1  0  0  0
 17 18  1  0  0  0
 18 19  1  0  0  0
 18 40  1  0  0  0
 18 41  1  0  0  0
 19 42  1  0  0  0
 19 43  1  0  0  0
 20 23  1  0  0  0
 20 44  1  0  0  0
 20 45  1  0  0  0
 21 22  2  0  0  0
 21 27  1  0  0  0
 21 46  1  0  0  0
 22 23  1  0  0  0
 22 47  1  0  0  0
 23 24  2  0  0  0
 24 25  1  0  0  0
 24 26  1  0  0  0
 26 27  2  0  0  0
 26 48  1  0  0  0
 27 28  1  0  0  0
M  END
> <s_m_entry_id>
1458

> <MODEL>
1

> <REMARK>
 VINA RESULT:    -9.131      0.000      0.000
 INTER + INTRA:         -11.111
 INTER:                 -10.732
 INTRA:                  -0.379
 UNBOUND:                -0.379
  Name = /scratch/kmzp800/tmpw5wf7pey/tmpwj0ozpia.pdb
  4 active torsions:
  status: ('A' for Active; 'I' for Inactive)
    1  A    between atoms: C3_3  and  C4_4
    2  A    between atoms: C4_4  and  C5_5
    3  A    between atoms: N2_11  and  C10_12
    4  A    between atoms: N4_20  and  C16_21
                            x       y       z     vdW  Elec       q    Type
                         _______ _______ _______ _____ _____    ______ ____

> <TORSDO>
F 3

> <grid_id>
p38-prepared

> <grid_path>
/projects/mai/users/kmzp800_harry/pmx_colab/docking_jobs/p38/vina_docking/input_files/p38_vina.pdbqt

> <grid_filename>
p38_vina.pdbqt

> <docking_score>
-9.131

> <compound_name>
lig_p38a_2j

> <index_string>
3:0:0

> <s_m_Source_Path>
/projects/mai/users/kmzp800_harry/pmx_colab/docking_jobs/p38/gmx_prep

> <s_m_Source_File>
prepared_vina_naive_confs.sdf

> <i_m_Source_File_Index>
4

> <s_m_entry_id>
1357

> <s_m_Source_Path>
/projects/mai/users/kmzp800_harry/pmx_colab/docking_jobs/p38

> <s_m_Source_File>
p38_confs_vina_naive.sdf

> <i_m_Source_File_Index>
4

$$$$
lig_p38a_2z
                    3D
 Schrodinger Suite 2021-4.
 45 47  0  0  1  0            999 V2000
   33.9550   39.3120   26.7030 N   0  0  0  0  0  0
   34.2810   38.4220   25.6290 C   0  0  0  0  0  0
   35.1230   37.3700   25.8250 N   0  0  0  0  0  0
   35.4370   36.5230   24.8110 C   0  0  0  0  0  0
   34.8930   36.7280   23.5480 C   0  0  0  0  0  0
   35.1930   35.8810   22.4890 C   0  0  0  0  0  0
   34.6360   36.1180   21.2270 C   0  0  0  0  0  0
   33.7620   37.2040   21.0610 C   0  0  0  0  0  0
   33.2450   37.4120   19.9290 O   0  0  0  0  0  0
   33.4740   38.0330   22.1140 N   0  0  0  0  0  0
   32.5670   39.1600   21.9160 C   0  0  0  0  0  0
   34.0240   37.8140   23.3500 C   0  0  0  0  0  0
   33.7410   38.6350   24.3990 N   0  0  0  0  0  0
   34.4580   39.2050   28.0710 C   0  0  0  0  0  0
   33.8150   40.2990   28.9020 C   0  0  0  0  0  0
   35.9650   39.4100   28.0850 C   0  0  0  0  0  0
   34.0930   37.8400   28.6540 C   0  0  0  0  0  0
   35.2070   36.9970   28.7060 O   0  0  0  0  0  0
   34.8990   35.2700   20.1400 O   0  0  0  0  0  0
   35.7870   35.5540   19.0950 C   0  0  0  0  0  0
   37.1230   35.8260   19.4100 C   0  0  0  0  0  0
   38.0470   36.1070   18.3990 C   0  0  0  0  0  0
   37.6410   36.1050   17.0630 C   0  0  0  0  0  0
   38.5360   36.3780   16.0830 F   0  0  0  0  0  0
   36.3160   35.8090   16.7350 C   0  0  0  0  0  0
   35.3890   35.5300   17.7430 C   0  0  0  0  0  0
   34.1240   35.1850   17.3940 F   0  0  0  0  0  0
   33.3140   40.0907   26.4942 H   0  0  0  0  0  0
   36.1189   35.6782   24.9881 H   0  0  0  0  0  0
   35.8672   35.0254   22.6418 H   0  0  0  0  0  0
   32.2511   39.5526   22.8938 H   0  0  0  0  0  0
   33.0830   39.9513   21.3525 H   0  0  0  0  0  0
   31.6836   38.8251   21.3525 H   0  0  0  0  0  0
   33.9475   40.0736   29.9705 H   0  0  0  0  0  0
   34.2899   41.2635   28.6691 H   0  0  0  0  0  0
   32.7413   40.3533   28.6691 H   0  0  0  0  0  0
   36.3188   39.4581   29.1254 H   0  0  0  0  0  0
   36.4541   38.5701   27.5699 H   0  0  0  0  0  0
   36.2120   40.3500   27.5699 H   0  0  0  0  0  0
   33.7002   37.9783   29.6721 H   0  0  0  0  0  0
   33.3356   37.3759   28.0051 H   0  0  0  0  0  0
   35.4423   36.8190   29.6510 H   0  0  0  0  0  0
   37.4486   35.8187   20.4607 H   0  0  0  0  0  0
   39.0932   36.3295   18.6559 H   0  0  0  0  0  0
   36.0014   35.7954   15.6810 H   0  0  0  0  0  0
  1 14  1  0  0  0
  1  2  1  0  0  0
  1 28  1  0  0  0
  2  3  2  0  0  0
  2 13  1  0  0  0
  3  4  1  0  0  0
  4  5  2  0  0  0
  4 29  1  0  0  0
  5  6  1  0  0  0
  5 12  1  0  0  0
  6  7  2  0  0  0
  6 30  1  0  0  0
  7  8  1  0  0  0
  7 19  1  0  0  0
  8 10  1  0  0  0
  8  9  2  0  0  0
 10 12  1  0  0  0
 10 11  1  0  0  0
 11 31  1  0  0  0
 11 32  1  0  0  0
 11 33  1  0  0  0
 12 13  2  0  0  0
 14 16  1  0  0  0
 14 17  1  0  0  0
 14 15  1  0  0  0
 15 34  1  0  0  0
 15 35  1  0  0  0
 15 36  1  0  0  0
 16 37  1  0  0  0
 16 38  1  0  0  0
 16 39  1  0  0  0
 17 18  1  0  0  0
 17 40  1  0  0  0
 17 41  1  0  0  0
 18 42  1  0  0  0
 19 20  1  0  0  0
 20 21  2  0  0  0
 20 26  1  0  0  0
 21 22  1  0  0  0
 21 43  1  0  0  0
 22 23  2  0  0  0
 22 44  1  0  0  0
 23 24  1  0  0  0
 23 25  1  0  0  0
 25 26  2  0  0  0
 25 45  1  0  0  0
 26 27  1  0  0  0
M  END
> <s_m_entry_id>
1459

> <MODEL>
1

> <REMARK>
 VINA RESULT:    -7.806      0.000      0.000
 INTER + INTRA:         -10.102
 INTER:                  -9.859
 INTRA:                  -0.242
 UNBOUND:                -0.242
  Name = /scratch/kmzp800/tmprwox22z3/tmp3haty_uk.pdb
  8 active torsions:
  status: ('A' for Active; 'I' for Inactive)
    1  A    between atoms: O1_1  and  C1_2
    2  A    between atoms: C1_2  and  C2_3
    3  A    between atoms: C2_3  and  N1_4
    4  A    between atoms: C2_3  and  C17_26
    5  A    between atoms: C2_3  and  C18_27
    6  A    between atoms: C7_10  and  O2_11
    7  A    between atoms: O2_11  and  C8_12
    8  A    between atoms: N3_22  and  C15_23
                            x       y       z     vdW  Elec       q    Type
                         _______ _______ _______ _____ _____    ______ ____

> <TORSDO>
F 5

> <grid_id>
p38-prepared

> <grid_path>
/projects/mai/users/kmzp800_harry/pmx_colab/docking_jobs/p38/vina_docking/input_files/p38_vina.pdbqt

> <grid_filename>
p38_vina.pdbqt

> <docking_score>
-7.806

> <compound_name>
lig_p38a_2z

> <index_string>
4:0:0

> <s_m_Source_Path>
/projects/mai/users/kmzp800_harry/pmx_colab/docking_jobs/p38/gmx_prep

> <s_m_Source_File>
prepared_vina_naive_confs.sdf

> <i_m_Source_File_Index>
5

> <s_m_entry_id>
1358

> <s_m_Source_Path>
/projects/mai/users/kmzp800_harry/pmx_colab/docking_jobs/p38

> <s_m_Source_File>
p38_confs_vina_naive.sdf

> <i_m_Source_File_Index>
5

$$$$
lig_p38a_3fly
                    3D
 Schrodinger Suite 2021-4.
 41 43  0  0  1  0            999 V2000
   33.5750   35.9810   20.1120 C   0  0  0  0  0  0
   33.5250   37.3640   20.2710 C   0  0  0  0  0  0
   33.2820   37.9080   21.5260 C   0  0  0  0  0  0
   33.2370   39.2870   21.7190 C   0  0  0  0  0  0
   33.0030   39.7870   22.9590 N   0  0  0  0  0  0
   32.8100   38.9630   24.0240 C   0  0  0  0  0  0
   32.5640   39.5260   25.3140 N   0  0  0  0  0  0
   32.8480   37.6130   23.8530 N   0  0  0  0  0  0
   33.0800   37.0620   22.6290 C   0  0  0  0  0  0
   33.1100   35.7030   22.4630 N   0  0  0  0  0  0
   32.8810   34.8300   23.6110 C   0  0  0  0  0  0
   33.3380   35.1510   21.2280 C   0  0  0  0  0  0
   33.3090   33.8980   21.0810 O   0  0  0  0  0  0
   32.3740   38.7140   26.5070 C   0  0  0  0  0  0
   32.5690   39.5630   27.7490 C   0  0  0  0  0  0
   30.9710   38.1460   26.5100 C   0  0  0  0  0  0
   33.8180   35.4640   18.8320 O   0  0  0  0  0  0
   37.4300   35.9610   18.0830 C   0  0  0  0  0  0
   36.2410   35.8290   18.8030 C   0  0  0  0  0  0
   35.0290   35.5810   18.1360 C   0  0  0  0  0  0
   35.0250   35.4860   16.7370 C   0  0  0  0  0  0
   33.8640   35.2620   16.0720 F   0  0  0  0  0  0
   36.2160   35.6190   16.0180 C   0  0  0  0  0  0
   37.4180   35.8550   16.6900 C   0  0  0  0  0  0
   38.5710   35.9830   15.9920 F   0  0  0  0  0  0
   33.6776   38.0241   19.4044 H   0  0  0  0  0  0
   33.3906   39.9684   20.8692 H   0  0  0  0  0  0
   32.5192   40.5511   25.4036 H   0  0  0  0  0  0
   33.0304   35.3994   24.5402 H   0  0  0  0  0  0
   31.8513   34.4444   23.5788 H   0  0  0  0  0  0
   33.5888   33.9886   23.5788 H   0  0  0  0  0  0
   33.1098   37.8963   26.5058 H   0  0  0  0  0  0
   32.4261   38.9407   28.6447 H   0  0  0  0  0  0
   33.5865   39.9809   27.7514 H   0  0  0  0  0  0
   31.8358   40.3830   27.7514 H   0  0  0  0  0  0
   30.6330   38.0092   27.5478 H   0  0  0  0  0  0
   30.2931   38.8405   25.9922 H   0  0  0  0  0  0
   30.9672   37.1755   25.9922 H   0  0  0  0  0  0
   38.3759   36.1484   18.6124 H   0  0  0  0  0  0
   36.2529   35.9197   19.8992 H   0  0  0  0  0  0
   36.2071   35.5377   14.9210 H   0  0  0  0  0  0
  1  2  2  0  0  0
  1 12  1  0  0  0
  1 17  1  0  0  0
  2  3  1  0  0  0
  2 26  1  0  0  0
  3  4  2  0  0  0
  3  9  1  0  0  0
  4  5  1  0  0  0
  4 27  1  0  0  0
  5  6  2  0  0  0
  6  7  1  0  0  0
  6  8  1  0  0  0
  7 14  1  0  0  0
  7 28  1  0  0  0
  8  9  2  0  0  0
  9 10  1  0  0  0
 10 11  1  0  0  0
 10 12  1  0  0  0
 11 29  1  0  0  0
 11 30  1  0  0  0
 11 31  1  0  0  0
 12 13  2  0  0  0
 14 16  1  0  0  0
 14 15  1  0  0  0
 14 32  1  0  0  0
 15 33  1  0  0  0
 15 34  1  0  0  0
 15 35  1  0  0  0
 16 36  1  0  0  0
 16 37  1  0  0  0
 16 38  1  0  0  0
 17 20  1  0  0  0
 18 19  2  0  0  0
 18 24  1  0  0  0
 18 39  1  0  0  0
 19 20  1  0  0  0
 19 40  1  0  0  0
 20 21  2  0  0  0
 21 22  1  0  0  0
 21 23  1  0  0  0
 23 24  2  0  0  0
 23 41  1  0  0  0
 24 25  1  0  0  0
M  END
> <s_m_entry_id>
1460

> <MODEL>
1

> <REMARK>
 VINA RESULT:    -8.269      0.000      0.000
 INTER + INTRA:         -10.072
 INTER:                  -9.719
 INTRA:                  -0.353
 UNBOUND:                -0.353
  Name = /scratch/kmzp800/tmpx9528uk7/tmppswoq_0l.pdb
  6 active torsions:
  status: ('A' for Active; 'I' for Inactive)
    1  A    between atoms: C3_3  and  O1_4
    2  A    between atoms: O1_4  and  C4_5
    3  A    between atoms: N2_11  and  C9_12
    4  A    between atoms: C9_12  and  C10_13
    5  A    between atoms: C9_12  and  C11_14
    6  A    between atoms: N4_17  and  C13_18
                            x       y       z     vdW  Elec       q    Type
                         _______ _______ _______ _____ _____    ______ ____

> <TORSDO>
F 3

> <grid_id>
p38-prepared

> <grid_path>
/projects/mai/users/kmzp800_harry/pmx_colab/docking_jobs/p38/vina_docking/input_files/p38_vina.pdbqt

> <grid_filename>
p38_vina.pdbqt

> <docking_score>
-8.269

> <compound_name>
lig_p38a_3fly

> <index_string>
5:0:0

> <s_m_Source_Path>
/projects/mai/users/kmzp800_harry/pmx_colab/docking_jobs/p38/gmx_prep

> <s_m_Source_File>
prepared_vina_naive_confs.sdf

> <i_m_Source_File_Index>
6

> <s_m_entry_id>
1359

> <s_m_Source_Path>
/projects/mai/users/kmzp800_harry/pmx_colab/docking_jobs/p38

> <s_m_Source_File>
p38_confs_vina_naive.sdf

> <i_m_Source_File_Index>
6

$$$$
lig_p38a_2gg
                    3D
 Schrodinger Suite 2021-4.
 48 51  0  0  1  0            999 V2000
   33.4850   35.9920   20.0450 C   0  0  0  0  0  0
   33.6580   37.3670   20.1860 C   0  0  0  0  0  0
   33.4010   37.9760   21.4080 C   0  0  0  0  0  0
   33.5750   39.3460   21.5820 C   0  0  0  0  0  0
   33.3180   39.9100   22.7910 N   0  0  0  0  0  0
   32.8930   39.1590   23.8410 C   0  0  0  0  0  0
   32.6310   39.7930   25.0980 N   0  0  0  0  0  0
   32.7140   37.8180   23.6870 N   0  0  0  0  0  0
   32.9570   37.2050   22.4950 C   0  0  0  0  0  0
   32.7670   35.8570   22.3440 N   0  0  0  0  0  0
   32.2880   35.0650   23.4740 C   0  0  0  0  0  0
   33.0090   35.2430   21.1430 C   0  0  0  0  0  0
   32.7840   34.0080   21.0090 O   0  0  0  0  0  0
   32.2090   39.0990   26.3110 C   0  0  0  0  0  0
   33.4180   38.5340   27.0810 C   0  0  0  0  0  0
   33.5990   37.0260   26.9300 C   0  0  0  0  0  0
   32.1550   36.1970   27.5620 S   0  0  0  0  0  0
   32.2860   35.9970   29.0450 O   0  0  0  0  0  0
   31.9940   34.8670   26.8830 O   0  0  0  0  0  0
   30.7500   37.2330   27.2150 C   0  0  0  0  0  0
   31.0690   38.1100   26.0150 C   0  0  0  0  0  0
   33.7510   35.4130   18.7950 O   0  0  0  0  0  0
   37.3440   35.9120   18.1070 C   0  0  0  0  0  0
   36.1280   35.7710   18.7820 C   0  0  0  0  0  0
   34.9420   35.5580   18.0710 C   0  0  0  0  0  0
   34.9890   35.4560   16.6650 C   0  0  0  0  0  0
   33.8750   35.1790   15.9440 F   0  0  0  0  0  0
   36.2090   35.5960   15.9950 C   0  0  0  0  0  0
   37.3820   35.8320   16.7130 C   0  0  0  0  0  0
   38.5610   35.9700   16.0600 F   0  0  0  0  0  0
   33.9977   37.9699   19.3309 H   0  0  0  0  0  0
   33.9193   39.9697   20.7438 H   0  0  0  0  0  0
   32.7491   40.8149   25.1502 H   0  0  0  0  0  0
   32.5830   35.5527   24.4148 H   0  0  0  0  0  0
   31.1916   34.9877   23.4291 H   0  0  0  0  0  0
   32.7287   34.0581   23.4291 H   0  0  0  0  0  0
   31.7622   39.8170   27.0145 H   0  0  0  0  0  0
   34.3270   39.0305   26.7106 H   0  0  0  0  0  0
   33.2351   38.7279   28.1482 H   0  0  0  0  0  0
   33.7312   36.7759   25.8670 H   0  0  0  0  0  0
   34.4871   36.7021   27.4925 H   0  0  0  0  0  0
   29.8747   36.6054   26.9914 H   0  0  0  0  0  0
   30.5271   37.8634   28.0885 H   0  0  0  0  0  0
   30.1680   38.6784   25.7410 H   0  0  0  0  0  0
   31.3921   37.4554   25.1921 H   0  0  0  0  0  0
   38.2707   36.0859   18.6735 H   0  0  0  0  0  0
   36.1034   35.8279   19.8803 H   0  0  0  0  0  0
   36.2438   35.5198   14.8982 H   0  0  0  0  0  0
  1  2  2  0  0  0
  1 12  1  0  0  0
  1 22  1  0  0  0
  2  3  1  0  0  0
  2 31  1  0  0  0
  3  4  2  0  0  0
  3  9  1  0  0  0
  4  5  1  0  0  0
  4 32  1  0  0  0
  5  6  2  0  0  0
  6  7  1  0  0  0
  6  8  1  0  0  0
  7 14  1  0  0  0
  7 33  1  0  0  0
  8  9  2  0  0  0
  9 10  1  0  0  0
 10 11  1  0  0  0
 10 12  1  0  0  0
 11 34  1  0  0  0
 11 35  1  0  0  0
 11 36  1  0  0  0
 12 13  2  0  0  0
 14 15  1  0  0  0
 14 21  1  0  0  0
 14 37  1  0  0  0
 15 16  1  0  0  0
 15 38  1  0  0  0
 15 39  1  0  0  0
 16 17  1  0  0  0
 16 40  1  0  0  0
 16 41  1  0  0  0
 17 18  2  0  0  0
 17 19  2  0  0  0
 17 20  1  0  0  0
 20 21  1  0  0  0
 20 42  1  0  0  0
 20 43  1  0  0  0
 21 44  1  0  0  0
 21 45  1  0  0  0
 22 25  1  0  0  0
 23 24  2  0  0  0
 23 29  1  0  0  0
 23 46  1  0  0  0
 24 25  1  0  0  0
 24 47  1  0  0  0
 25 26  2  0  0  0
 26 27  1  0  0  0
 26 28  1  0  0  0
 28 29  2  0  0  0
 28 48  1  0  0  0
 29 30  1  0  0  0
M  END
> <s_m_entry_id>
1461

> <MODEL>
1

> <REMARK>
 VINA RESULT:    -9.305      0.000      0.000
 INTER + INTRA:         -11.056
 INTER:                 -10.937
 INTRA:                  -0.119
 UNBOUND:                -0.119
  Name = /scratch/kmzp800/tmpan3xnqd6/tmpj450sefj.pdb
  4 active torsions:
  status: ('A' for Active; 'I' for Inactive)
    1  A    between atoms: C3_3  and  O1_4
    2  A    between atoms: O1_4  and  C4_5
    3  A    between atoms: N2_11  and  C9_12
    4  A    between atoms: N4_22  and  C15_23
                            x       y       z     vdW  Elec       q    Type
                         _______ _______ _______ _____ _____    ______ ____

> <TORSDO>
F 3

> <grid_id>
p38-prepared

> <grid_path>
/projects/mai/users/kmzp800_harry/pmx_colab/docking_jobs/p38/vina_docking/input_files/p38_vina.pdbqt

> <grid_filename>
p38_vina.pdbqt

> <docking_score>
-9.305

> <compound_name>
lig_p38a_2gg

> <index_string>
6:0:0

> <s_m_Source_Path>
/projects/mai/users/kmzp800_harry/pmx_colab/docking_jobs/p38/gmx_prep

> <s_m_Source_File>
prepared_vina_naive_confs.sdf

> <i_m_Source_File_Index>
7

> <s_m_entry_id>
1360

> <s_m_Source_Path>
/projects/mai/users/kmzp800_harry/pmx_colab/docking_jobs/p38

> <s_m_Source_File>
p38_confs_vina_naive.sdf

> <i_m_Source_File_Index>
7

$$$$
lig_p38a_3flq
                    3D
 Schrodinger Suite 2021-4.
 47 49  0  0  1  0            999 V2000
   33.4160   35.6370   19.8180 C   0  0  0  0  0  0
   33.3550   36.9150   20.3880 C   0  0  0  0  0  0
   33.1240   37.0540   21.7500 C   0  0  0  0  0  0
   33.0650   38.3110   22.3470 C   0  0  0  0  0  0
   32.8380   38.4110   23.6820 N   0  0  0  0  0  0
   32.6640   37.3010   24.4530 C   0  0  0  0  0  0
   32.4240   37.4170   25.8610 N   0  0  0  0  0  0
   32.7170   36.0680   23.8840 N   0  0  0  0  0  0
   32.9430   35.9130   22.5500 C   0  0  0  0  0  0
   32.9930   34.6670   21.9830 N   0  0  0  0  0  0
   32.7990   33.4850   22.8180 C   0  0  0  0  0  0
   33.2210   34.5150   20.6400 C   0  0  0  0  0  0
   33.2600   33.3620   20.1270 O   0  0  0  0  0  0
   32.3460   38.6760   26.5950 C   0  0  2  0  0  0
   33.7330   39.1460   27.0040 C   0  0  0  0  0  0
   31.4280   38.5400   27.8030 C   0  0  0  0  0  0
   31.4230   36.8690   28.4250 S   0  0  0  0  0  0
   32.8300   36.3530   28.5240 O   0  0  0  0  0  0
   30.6400   35.9970   27.4850 O   0  0  0  0  0  0
   30.6610   36.8220   30.0310 C   0  0  0  0  0  0
   33.6270   35.4590   18.4430 O   0  0  0  0  0  0
   37.2590   35.9290   17.9700 C   0  0  0  0  0  0
   36.0050   35.8070   18.5720 C   0  0  0  0  0  0
   34.8660   35.5660   17.7970 C   0  0  0  0  0  0
   34.9900   35.4810   16.3960 C   0  0  0  0  0  0
   33.8980   35.3350   15.6050 F   0  0  0  0  0  0
   36.2470   35.6050   15.7970 C   0  0  0  0  0  0
   37.3820   35.8200   16.5830 C   0  0  0  0  0  0
   38.5990   35.9390   15.9990 F   0  0  0  0  0  0
   33.4898   37.8066   19.7580 H   0  0  0  0  0  0
   33.2016   39.2182   21.7401 H   0  0  0  0  0  0
   32.2969   36.5458   26.3955 H   0  0  0  0  0  0
   32.8463   33.7734   23.8785 H   0  0  0  0  0  0
   31.8160   33.0410   22.6023 H   0  0  0  0  0  0
   33.5885   32.7501   22.6023 H   0  0  0  0  0  0
   31.9148   39.4396   25.9309 H   0  0  0  0  0  0
   33.8033   39.1698   28.1015 H   0  0  0  0  0  0
   34.4878   38.4535   26.6032 H   0  0  0  0  0  0
   33.9113   40.1547   26.6032 H   0  0  0  0  0  0
   31.7768   39.2171   28.5966 H   0  0  0  0  0  0
   30.4048   38.7993   27.4935 H   0  0  0  0  0  0
   31.4387   36.8700   30.8074 H   0  0  0  0  0  0
   29.9811   37.6799   30.1395 H   0  0  0  0  0  0
   30.0917   35.8870   30.1395 H   0  0  0  0  0  0
   38.1503   36.1110   18.5884 H   0  0  0  0  0  0
   35.9123   35.9012   19.6640 H   0  0  0  0  0  0
   36.3428   35.5331   14.7035 H   0  0  0  0  0  0
  1  2  2  0  0  0
  1 12  1  0  0  0
  1 21  1  0  0  0
  2  3  1  0  0  0
  2 30  1  0  0  0
  3  4  2  0  0  0
  3  9  1  0  0  0
  4  5  1  0  0  0
  4 31  1  0  0  0
  5  6  2  0  0  0
  6  7  1  0  0  0
  6  8  1  0  0  0
  7 14  1  0  0  0
  7 32  1  0  0  0
  8  9  2  0  0  0
  9 10  1  0  0  0
 10 11  1  0  0  0
 10 12  1  0  0  0
 11 33  1  0  0  0
 11 34  1  0  0  0
 11 35  1  0  0  0
 12 13  2  0  0  0
 14 15  1  0  0  0
 14 16  1  0  0  0
 14 36  1  0  0  0
 15 37  1  0  0  0
 15 38  1  0  0  0
 15 39  1  0  0  0
 16 17  1  0  0  0
 16 40  1  0  0  0
 16 41  1  0  0  0
 17 18  2  0  0  0
 17 20  1  0  0  0
 17 19  2  0  0  0
 20 42  1  0  0  0
 20 43  1  0  0  0
 20 44  1  0  0  0
 21 24  1  0  0  0
 22 23  2  0  0  0
 22 28  1  0  0  0
 22 45  1  0  0  0
 23 24  1  0  0  0
 23 46  1  0  0  0
 24 25  2  0  0  0
 25 26  1  0  0  0
 25 27  1  0  0  0
 27 28  2  0  0  0
 27 47  1  0  0  0
 28 29  1  0  0  0
M  END
> <s_m_entry_id>
1462

> <MODEL>
1

> <REMARK>
 VINA RESULT:    -7.581      0.000      0.000
 INTER + INTRA:         -10.742
 INTER:                  -9.797
 INTRA:                  -0.945
 UNBOUND:                -0.945
  Name = /scratch/kmzp800/tmp_vru1x80/tmp3lzh_0tc.pdb
  8 active torsions:
  status: ('A' for Active; 'I' for Inactive)
    1  A    between atoms: C3_3  and  O1_4
    2  A    between atoms: O1_4  and  C4_5
    3  A    between atoms: N2_11  and  C9_12
    4  A    between atoms: C9_12  and  C10_13
    5  A    between atoms: C9_12  and  C11_14
    6  A    between atoms: C11_14  and  S1_15
    7  A    between atoms: S1_15  and  C12_18
    8  A    between atoms: N4_21  and  C14_22
                            x       y       z     vdW  Elec       q    Type
                         _______ _______ _______ _____ _____    ______ ____

> <TORSDO>
F 5

> <grid_id>
p38-prepared

> <grid_path>
/projects/mai/users/kmzp800_harry/pmx_colab/docking_jobs/p38/vina_docking/input_files/p38_vina.pdbqt

> <grid_filename>
p38_vina.pdbqt

> <docking_score>
-7.581

> <compound_name>
lig_p38a_3flq

> <index_string>
7:0:0

> <s_m_Source_Path>
/projects/mai/users/kmzp800_harry/pmx_colab/docking_jobs/p38/gmx_prep

> <s_m_Source_File>
prepared_vina_naive_confs.sdf

> <i_m_Source_File_Index>
8

> <s_m_entry_id>
1361

> <s_m_Source_Path>
/projects/mai/users/kmzp800_harry/pmx_colab/docking_jobs/p38

> <s_m_Source_File>
p38_confs_vina_naive.sdf

> <i_m_Source_File_Index>
8

$$$$
lig_p38a_2k
                    3D
 Schrodinger Suite 2021-4.
 43 46  0  0  1  0            999 V2000
   33.3920   35.5090   19.8900 C   0  0  0  0  0  0
   33.2670   36.7520   20.5300 C   0  0  0  0  0  0
   33.0230   36.8020   21.9000 C   0  0  0  0  0  0
   32.9000   38.0120   22.5770 C   0  0  0  0  0  0
   32.6620   38.0110   23.9140 N   0  0  0  0  0  0
   32.5390   36.8440   24.6100 C   0  0  0  0  0  0
   32.2870   36.8560   26.0200 N   0  0  0  0  0  0
   32.6550   35.6540   23.9620 N   0  0  0  0  0  0
   32.8940   35.6080   22.6250 C   0  0  0  0  0  0
   33.0060   34.4130   21.9880 N   0  0  0  0  0  0
   33.2460   34.3370   20.6500 C   0  0  0  0  0  0
   33.3370   33.2090   20.0980 O   0  0  0  0  0  0
   32.1410   38.0620   26.8300 C   0  0  0  0  0  0
   33.5070   38.6190   27.2350 C   0  0  0  0  0  0
   33.3020   39.7560   28.2350 C   0  0  0  0  0  0
   32.6160   39.2820   29.3690 O   0  0  0  0  0  0
   31.2940   39.0250   28.9630 C   0  0  0  0  0  0
   31.2580   37.8000   28.0510 C   0  0  0  0  0  0
   33.6160   35.4140   18.5080 O   0  0  0  0  0  0
   37.2480   35.9500   18.1040 C   0  0  0  0  0  0
   35.9850   35.8070   18.6820 C   0  0  0  0  0  0
   34.8660   35.5390   17.8860 C   0  0  0  0  0  0
   35.0200   35.4490   16.4870 C   0  0  0  0  0  0
   33.9470   35.2770   15.6760 F   0  0  0  0  0  0
   36.2860   35.5950   15.9130 C   0  0  0  0  0  0
   37.4010   35.8350   16.7210 C   0  0  0  0  0  0
   38.6260   35.9730   16.1610 F   0  0  0  0  0  0
   33.3614   37.6829   19.9516 H   0  0  0  0  0  0
   32.9950   38.9630   22.0325 H   0  0  0  0  0  0
   32.2026   35.9473   26.4975 H   0  0  0  0  0  0
   32.9069   33.5432   22.5308 H   0  0  0  0  0  0
   31.6398   38.8256   26.2170 H   0  0  0  0  0  0
   34.1074   37.8228   27.6993 H   0  0  0  0  0  0
   34.0341   38.9955   26.3460 H   0  0  0  0  0  0
   34.2812   40.1529   28.5411 H   0  0  0  0  0  0
   32.7088   40.5516   27.7605 H   0  0  0  0  0  0
   30.6702   38.8380   29.8495 H   0  0  0  0  0  0
   30.9084   39.8965   28.4136 H   0  0  0  0  0  0
   30.2241   37.6131   27.7252 H   0  0  0  0  0  0
   31.6294   36.9198   28.5962 H   0  0  0  0  0  0
   38.1231   36.1534   18.7387 H   0  0  0  0  0  0
   35.8689   35.9058   19.7714 H   0  0  0  0  0  0
   36.4052   35.5208   14.8220 H   0  0  0  0  0  0
  1  2  2  0  0  0
  1 11  1  0  0  0
  1 19  1  0  0  0
  2  3  1  0  0  0
  2 28  1  0  0  0
  3  4  2  0  0  0
  3  9  1  0  0  0
  4  5  1  0  0  0
  4 29  1  0  0  0
  5  6  2  0  0  0
  6  7  1  0  0  0
  6  8  1  0  0  0
  7 13  1  0  0  0
  7 30  1  0  0  0
  8  9  2  0  0  0
  9 10  1  0  0  0
 10 11  1  0  0  0
 10 31  1  0  0  0
 11 12  2  0  0  0
 13 14  1  0  0  0
 13 18  1  0  0  0
 13 32  1  0  0  0
 14 15  1  0  0  0
 14 33  1  0  0  0
 14 34  1  0  0  0
 15 16  1  0  0  0
 15 35  1  0  0  0
 15 36  1  0  0  0
 16 17  1  0  0  0
 17 18  1  0  0  0
 17 37  1  0  0  0
 17 38  1  0  0  0
 18 39  1  0  0  0
 18 40  1  0  0  0
 19 22  1  0  0  0
 20 21  2  0  0  0
 20 26  1  0  0  0
 20 41  1  0  0  0
 21 22  1  0  0  0
 21 42  1  0  0  0
 22 23  2  0  0  0
 23 24  1  0  0  0
 23 25  1  0  0  0
 25 26  2  0  0  0
 25 43  1  0  0  0
 26 27  1  0  0  0
M  END
> <s_m_entry_id>
1464

> <MODEL>
1

> <REMARK>
 VINA RESULT:    -7.942      0.000      0.000
 INTER + INTRA:          -9.784
 INTER:                  -9.335
 INTRA:                  -0.449
 UNBOUND:                -0.449
  Name = /scratch/kmzp800/tmpvmh80127/tmprn427q73.pdb
  3 active torsions:
  status: ('A' for Active; 'I' for Inactive)
    1  A    between atoms: C3_3  and  O1_4
    2  A    between atoms: O1_4  and  C4_5
    3  A    between atoms: N2_11  and  C9_12
                            x       y       z     vdW  Elec       q    Type
                         _______ _______ _______ _____ _____    ______ ____

> <TORSDO>
F 3

> <grid_id>
p38-prepared

> <grid_path>
/projects/mai/users/kmzp800_harry/pmx_colab/docking_jobs/p38/vina_docking/input_files/p38_vina.pdbqt

> <grid_filename>
p38_vina.pdbqt

> <docking_score>
-7.942

> <compound_name>
lig_p38a_2k

> <index_string>
9:0:0

> <s_m_Source_Path>
/projects/mai/users/kmzp800_harry/pmx_colab/docking_jobs/p38/gmx_prep

> <s_m_Source_File>
prepared_vina_naive_confs.sdf

> <i_m_Source_File_Index>
10

> <s_m_entry_id>
1363

> <s_m_Source_Path>
/projects/mai/users/kmzp800_harry/pmx_colab/docking_jobs/p38

> <s_m_Source_File>
p38_confs_vina_naive.sdf

> <i_m_Source_File_Index>
10

$$$$
lig_p38a_2s
                    3D
 Schrodinger Suite 2021-4.
 54 57  0  0  1  0            999 V2000
   32.7220   34.4890   22.0710 N   0  0  0  0  0  0
   33.0710   34.4460   20.7440 C   0  0  0  0  0  0
   33.0930   33.3440   20.1270 O   0  0  0  0  0  0
   33.4040   35.6210   20.0540 C   0  0  0  0  0  0
   33.3380   36.8460   20.7260 C   0  0  0  0  0  0
   32.9590   36.8830   22.0610 C   0  0  0  0  0  0
   32.8760   38.0870   22.7530 C   0  0  0  0  0  0
   32.4900   38.0910   24.0550 N   0  0  0  0  0  0
   32.1810   36.9320   24.6990 C   0  0  0  0  0  0
   31.7740   36.9460   26.0690 N   0  0  0  0  0  0
   32.2570   35.7470   24.0370 N   0  0  0  0  0  0
   32.6440   35.6890   22.7320 C   0  0  0  0  0  0
   31.7060   38.1670   26.8630 C   0  0  0  0  0  0
   33.1040   38.5340   27.3860 C   0  0  0  0  0  0
   33.4460   37.8210   28.7040 C   0  0  0  0  0  0
   32.5660   36.7530   28.9510 O   0  0  0  0  0  0
   31.3260   37.3410   29.2500 C   0  0  0  0  0  0
   30.6960   37.9790   28.0010 C   0  0  0  0  0  0
   32.4000   33.2440   22.7790 C   0  0  0  0  0  0
   30.9490   32.8060   22.5640 C   0  0  2  0  0  0
   30.1380   33.2330   23.6180 O   0  0  0  0  0  0
   30.8360   31.3000   22.3900 C   0  0  0  0  0  0
   31.5980   30.8910   21.2950 O   0  0  0  0  0  0
   33.7530   35.5500   18.6960 O   0  0  0  0  0  0
   35.0580   35.6520   18.1940 C   0  0  0  0  0  0
   36.1060   35.8620   19.0970 C   0  0  0  0  0  0
   37.4210   35.9780   18.6400 C   0  0  0  0  0  0
   37.6960   35.8930   17.2730 C   0  0  0  0  0  0
   38.9720   36.0060   16.8320 F   0  0  0  0  0  0
   36.6540   35.7100   16.3620 C   0  0  0  0  0  0
   35.3360   35.5910   16.8130 C   0  0  0  0  0  0
   34.3390   35.4750   15.9040 F   0  0  0  0  0  0
   33.5860   37.7784   20.1976 H   0  0  0  0  0  0
   33.1222   39.0324   22.2474 H   0  0  0  0  0  0
   31.5173   36.0539   26.5152 H   0  0  0  0  0  0
   31.3608   39.0042   26.2386 H   0  0  0  0  0  0
   33.8495   38.2510   26.6282 H   0  0  0  0  0  0
   33.1145   39.6168   27.5796 H   0  0  0  0  0  0
   34.4733   37.4323   28.6449 H   0  0  0  0  0  0
   33.3506   38.5462   29.5256 H   0  0  0  0  0  0
   30.6470   36.5679   29.6389 H   0  0  0  0  0  0
   31.4869   38.1297   29.9997 H   0  0  0  0  0  0
   30.2874   38.9626   28.2757 H   0  0  0  0  0  0
   29.9095   37.2999   27.6402 H   0  0  0  0  0  0
   33.0664   32.4484   22.4145 H   0  0  0  0  0  0
   32.5384   33.4259   23.8550 H   0  0  0  0  0  0
   30.6004   33.2807   21.6349 H   0  0  0  0  0  0
   30.5696   33.0057   24.4795 H   0  0  0  0  0  0
   31.2035   30.7992   23.2978 H   0  0  0  0  0  0
   29.7828   31.0327   22.2190 H   0  0  0  0  0  0
   32.4236   30.4479   21.6145 H   0  0  0  0  0  0
   35.8931   35.9362   20.1736 H   0  0  0  0  0  0
   38.2402   36.1363   19.3568 H   0  0  0  0  0  0
   36.8709   35.6592   15.2848 H   0  0  0  0  0  0
  1 12  1  0  0  0
  1 19  1  0  0  0
  1  2  1  0  0  0
  2  3  2  0  0  0
  2  4  1  0  0  0
  4  5  2  0  0  0
  4 24  1  0  0  0
  5  6  1  0  0  0
  5 33  1  0  0  0
  6 12  2  0  0  0
  6  7  1  0  0  0
  7  8  2  0  0  0
  7 34  1  0  0  0
  8  9  1  0  0  0
  9 10  1  0  0  0
  9 11  2  0  0  0
 10 13  1  0  0  0
 10 35  1  0  0  0
 11 12  1  0  0  0
 13 14  1  0  0  0
 13 18  1  0  0  0
 13 36  1  0  0  0
 14 15  1  0  0  0
 14 37  1  0  0  0
 14 38  1  0  0  0
 15 16  1  0  0  0
 15 39  1  0  0  0
 15 40  1  0  0  0
 16 17  1  0  0  0
 17 18  1  0  0  0
 17 41  1  0  0  0
 17 42  1  0  0  0
 18 43  1  0  0  0
 18 44  1  0  0  0
 19 20  1  0  0  0
 19 45  1  0  0  0
 19 46  1  0  0  0
 20 22  1  0  0  0
 20 21  1  0  0  0
 20 47  1  0  0  0
 21 48  1  0  0  0
 22 23  1  0  0  0
 22 49  1  0  0  0
 22 50  1  0  0  0
 23 51  1  0  0  0
 24 25  1  0  0  0
 25 26  2  0  0  0
 25 31  1  0  0  0
 26 27  1  0  0  0
 26 52  1  0  0  0
 27 28  2  0  0  0
 27 53  1  0  0  0
 28 29  1  0  0  0
 28 30  1  0  0  0
 30 31  2  0  0  0
 30 54  1  0  0  0
 31 32  1  0  0  0
M  END
> <s_m_entry_id>
1465

> <MODEL>
1

> <REMARK>
 VINA RESULT:    -7.998      0.000      0.000
 INTER + INTRA:         -12.435
 INTER:                 -11.271
 INTRA:                  -1.164
 UNBOUND:                -1.164
  Name = /scratch/kmzp800/tmp8kuach49/tmp30bg7l33.pdb
  8 active torsions:
  status: ('A' for Active; 'I' for Inactive)
    1  A    between atoms: O1_1  and  C1_2
    2  A    between atoms: C1_2  and  C2_3
    3  A    between atoms: C2_3  and  O2_4
    4  A    between atoms: C2_3  and  C3_5
    5  A    between atoms: C3_5  and  N1_6
    6  A    between atoms: C5_9  and  O4_10
    7  A    between atoms: O4_10  and  C6_11
    8  A    between atoms: N3_24  and  C16_25
                            x       y       z     vdW  Elec       q    Type
                         _______ _______ _______ _____ _____    ______ ____

> <TORSDO>
F 8

> <grid_id>
p38-prepared

> <grid_path>
/projects/mai/users/kmzp800_harry/pmx_colab/docking_jobs/p38/vina_docking/input_files/p38_vina.pdbqt

> <grid_filename>
p38_vina.pdbqt

> <docking_score>
-7.998

> <compound_name>
lig_p38a_2s

> <index_string>
10:0:0

> <s_m_Source_Path>
/projects/mai/users/kmzp800_harry/pmx_colab/docking_jobs/p38/gmx_prep

> <s_m_Source_File>
prepared_vina_naive_confs.sdf

> <i_m_Source_File_Index>
11

> <s_m_entry_id>
1364

> <s_m_Source_Path>
/projects/mai/users/kmzp800_harry/pmx_colab/docking_jobs/p38

> <s_m_Source_File>
p38_confs_vina_naive.sdf

> <i_m_Source_File_Index>
11

$$$$
lig_p38a_2r
                    3D
 Schrodinger Suite 2021-4.
 56 59  0  0  1  0            999 V2000
   32.9620   34.5870   21.9830 N   0  0  0  0  0  0
   33.2400   34.4730   20.6440 C   0  0  0  0  0  0
   33.2960   33.3370   20.0980 O   0  0  0  0  0  0
   33.4610   35.6170   19.8600 C   0  0  0  0  0  0
   33.3560   36.8790   20.4540 C   0  0  0  0  0  0
   33.0480   36.9840   21.8040 C   0  0  0  0  0  0
   32.9260   38.2250   22.4200 C   0  0  0  0  0  0
   32.6120   38.2950   23.7390 N   0  0  0  0  0  0
   32.4090   37.1660   24.4740 C   0  0  0  0  0  0
   32.0750   37.2500   25.8600 N   0  0  0  0  0  0
   32.5230   35.9460   23.8860 N   0  0  0  0  0  0
   32.8430   35.8220   22.5680 C   0  0  0  0  0  0
   31.9760   38.5150   26.5760 C   0  0  0  0  0  0
   33.3790   39.0270   26.9390 C   0  0  0  0  0  0
   33.8980   38.4400   28.2600 C   0  0  0  0  0  0
   33.1390   37.3270   28.6580 O   0  0  0  0  0  0
   31.8850   37.8360   29.0370 C   0  0  0  0  0  0
   31.0920   38.3320   27.8170 C   0  0  0  0  0  0
   32.7550   33.3760   22.7890 C   0  0  0  0  0  0
   31.3400   32.8050   22.6430 C   0  0  0  0  0  0
   30.6040   33.0080   23.9500 C   0  0  0  0  0  0
   31.3780   31.3200   22.3380 C   0  0  0  0  0  0
   30.6480   33.4660   21.6290 O   0  0  0  0  0  0
   33.7400   35.4740   18.4920 O   0  0  0  0  0  0
   35.0110   35.5890   17.9140 C   0  0  0  0  0  0
   36.1050   35.8340   18.7520 C   0  0  0  0  0  0
   37.3900   35.9660   18.2180 C   0  0  0  0  0  0
   37.5890   35.8620   16.8400 C   0  0  0  0  0  0
   38.8340   35.9890   16.3240 F   0  0  0  0  0  0
   36.5000   35.6450   15.9930 C   0  0  0  0  0  0
   35.2120   35.5110   16.5210 C   0  0  0  0  0  0
   34.1660   35.3620   15.6720 F   0  0  0  0  0  0
   33.5170   37.7862   19.8531 H   0  0  0  0  0  0
   33.0834   39.1466   21.8405 H   0  0  0  0  0  0
   31.8961   36.3771   26.3766 H   0  0  0  0  0  0
   31.5063   39.2745   25.9337 H   0  0  0  0  0  0
   34.0746   38.7502   26.1330 H   0  0  0  0  0  0
   33.3142   40.1182   27.0618 H   0  0  0  0  0  0
   34.9452   38.1305   28.1275 H   0  0  0  0  0  0
   33.8156   39.2124   29.0388 H   0  0  0  0  0  0
   31.3123   37.0416   29.5379 H   0  0  0  0  0  0
   32.0461   38.6865   29.7158 H   0  0  0  0  0  0
   30.6294   39.2984   28.0661 H   0  0  0  0  0  0
   30.3348   37.5705   27.5785 H   0  0  0  0  0  0
   33.4781   32.6116   22.4683 H   0  0  0  0  0  0
   32.8960   33.6506   23.8448 H   0  0  0  0  0  0
   31.2890   32.8191   24.7897 H   0  0  0  0  0  0
   30.2329   34.0420   24.0051 H   0  0  0  0  0  0
   29.7553   32.3104   24.0051 H   0  0  0  0  0  0
   31.3925   30.7524   23.2802 H   0  0  0  0  0  0
   30.4867   31.0422   21.7563 H   0  0  0  0  0  0
   32.2824   31.0882   21.7563 H   0  0  0  0  0  0
   29.9934   34.0913   22.0296 H   0  0  0  0  0  0
   35.9526   35.9232   19.8377 H   0  0  0  0  0  0
   38.2454   36.1520   18.8842 H   0  0  0  0  0  0
   36.6560   35.5792   14.9061 H   0  0  0  0  0  0
  1 12  1  0  0  0
  1 19  1  0  0  0
  1  2  1  0  0  0
  2  3  2  0  0  0
  2  4  1  0  0  0
  4  5  2  0  0  0
  4 24  1  0  0  0
  5  6  1  0  0  0
  5 33  1  0  0  0
  6  7  1  0  0  0
  6 12  2  0  0  0
  7  8  2  0  0  0
  7 34  1  0  0  0
  8  9  1  0  0  0
  9 10  1  0  0  0
  9 11  2  0  0  0
 10 13  1  0  0  0
 10 35  1  0  0  0
 11 12  1  0  0  0
 13 14  1  0  0  0
 13 18  1  0  0  0
 13 36  1  0  0  0
 14 15  1  0  0  0
 14 37  1  0  0  0
 14 38  1  0  0  0
 15 16  1  0  0  0
 15 39  1  0  0  0
 15 40  1  0  0  0
 16 17  1  0  0  0
 17 18  1  0  0  0
 17 41  1  0  0  0
 17 42  1  0  0  0
 18 43  1  0  0  0
 18 44  1  0  0  0
 19 20  1  0  0  0
 19 45  1  0  0  0
 19 46  1  0  0  0
 20 21  1  0  0  0
 20 22  1  0  0  0
 20 23  1  0  0  0
 21 47  1  0  0  0
 21 48  1  0  0  0
 21 49  1  0  0  0
 22 50  1  0  0  0
 22 51  1  0  0  0
 22 52  1  0  0  0
 23 53  1  0  0  0
 24 25  1  0  0  0
 25 26  2  0  0  0
 25 31  1  0  0  0
 26 27  1  0  0  0
 26 54  1  0  0  0
 27 28  2  0  0  0
 27 55  1  0  0  0
 28 29  1  0  0  0
 28 30  1  0  0  0
 30 31  2  0  0  0
 30 56  1  0  0  0
 31 32  1  0  0  0
M  END
> <s_m_entry_id>
1466

> <MODEL>
1

> <REMARK>
 VINA RESULT:    -8.318      0.000      0.000
 INTER + INTRA:         -11.639
 INTER:                 -10.992
 INTRA:                  -0.647
 UNBOUND:                -0.647
  Name = /scratch/kmzp800/tmp8cp3_pu6/tmpntmj4iv_.pdb
  8 active torsions:
  status: ('A' for Active; 'I' for Inactive)
    1  A    between atoms: O1_1  and  C1_2
    2  A    between atoms: C1_2  and  C2_3
    3  A    between atoms: C1_2  and  C3_4
    4  A    between atoms: C1_2  and  C4_5
    5  A    between atoms: C4_5  and  N1_6
    6  A    between atoms: C6_9  and  O3_10
    7  A    between atoms: O3_10  and  C7_11
    8  A    between atoms: N3_24  and  C17_25
                            x       y       z     vdW  Elec       q    Type
                         _______ _______ _______ _____ _____    ______ ____

> <TORSDO>
F 6

> <grid_id>
p38-prepared

> <grid_path>
/projects/mai/users/kmzp800_harry/pmx_colab/docking_jobs/p38/vina_docking/input_files/p38_vina.pdbqt

> <grid_filename>
p38_vina.pdbqt

> <docking_score>
-8.318

> <compound_name>
lig_p38a_2r

> <index_string>
11:0:0

> <s_m_Source_Path>
/projects/mai/users/kmzp800_harry/pmx_colab/docking_jobs/p38/gmx_prep

> <s_m_Source_File>
prepared_vina_naive_confs.sdf

> <i_m_Source_File_Index>
12

> <s_m_entry_id>
1365

> <s_m_Source_Path>
/projects/mai/users/kmzp800_harry/pmx_colab/docking_jobs/p38

> <s_m_Source_File>
p38_confs_vina_naive.sdf

> <i_m_Source_File_Index>
12

$$$$
lig_p38a_2i
                    3D
 Schrodinger Suite 2021-4.
 48 51  0  0  1  0            999 V2000
   33.5010   35.7460   19.8870 C   0  0  0  0  0  0
   33.4010   36.9980   20.4920 C   0  0  0  0  0  0
   33.0850   37.0860   21.8430 C   0  0  0  0  0  0
   32.9760   38.3200   22.4790 C   0  0  0  0  0  0
   32.6670   38.3710   23.8000 N   0  0  0  0  0  0
   32.4620   37.2330   24.5190 C   0  0  0  0  0  0
   32.1350   37.3000   25.9080 N   0  0  0  0  0  0
   32.5630   36.0200   23.9130 N   0  0  0  0  0  0
   32.8710   35.9150   22.5900 C   0  0  0  0  0  0
   32.9740   34.6900   21.9870 N   0  0  0  0  0  0
   32.7510   33.4770   22.7690 C   0  0  0  0  0  0
   33.2850   34.5870   20.6550 C   0  0  0  0  0  0
   33.3780   33.4520   20.1110 O   0  0  0  0  0  0
   32.0420   38.5560   26.6420 C   0  0  0  0  0  0
   31.1670   38.3570   27.8860 C   0  0  0  0  0  0
   31.9690   37.8480   29.0940 C   0  0  0  0  0  0
   33.2200   37.3450   28.7020 O   0  0  0  0  0  0
   33.9760   38.4630   28.3110 C   0  0  0  0  0  0
   33.4480   39.0630   26.9990 C   0  0  0  0  0  0
   33.8650   35.6650   18.4370 C   0  0  0  0  0  0
   38.1210   35.9760   17.9450 C   0  0  0  0  0  0
   37.5560   36.0120   19.2220 C   0  0  0  0  0  0
   36.1710   35.9030   19.3770 C   0  0  0  0  0  0
   35.3460   35.7570   18.2550 C   0  0  0  0  0  0
   35.9150   35.7250   16.9720 C   0  0  0  0  0  0
   35.1340   35.5890   15.8720 F   0  0  0  0  0  0
   37.3010   35.8330   16.8210 C   0  0  0  0  0  0
   33.5713   37.9116   19.9034 H   0  0  0  0  0  0
   33.1395   39.2493   21.9136 H   0  0  0  0  0  0
   31.9568   36.4207   26.4139 H   0  0  0  0  0  0
   32.7954   33.7186   23.8412 H   0  0  0  0  0  0
   31.7615   33.0617   22.5274 H   0  0  0  0  0  0
   33.5281   32.7369   22.5274 H   0  0  0  0  0  0
   31.5674   39.3248   26.0145 H   0  0  0  0  0  0
   30.7046   39.3196   28.1498 H   0  0  0  0  0  0
   30.4092   37.5974   27.6437 H   0  0  0  0  0  0
   32.1219   38.6791   29.7982 H   0  0  0  0  0  0
   31.4015   37.0341   29.5689 H   0  0  0  0  0  0
   33.9220   39.2262   29.1013 H   0  0  0  0  0  0
   35.0155   38.1406   28.1516 H   0  0  0  0  0  0
   34.1372   38.7928   26.1854 H   0  0  0  0  0  0
   33.3856   40.1531   27.1321 H   0  0  0  0  0  0
   33.5105   34.7069   18.0293 H   0  0  0  0  0  0
   33.3920   36.5052   17.9075 H   0  0  0  0  0  0
   39.2110   36.0601   17.8234 H   0  0  0  0  0  0
   38.2010   36.1261   20.1057 H   0  0  0  0  0  0
   35.7279   35.9320   20.3834 H   0  0  0  0  0  0
   37.7473   35.8054   15.8160 H   0  0  0  0  0  0
  1  2  2  0  0  0
  1 12  1  0  0  0
  1 20  1  0  0  0
  2  3  1  0  0  0
  2 28  1  0  0  0
  3  4  2  0  0  0
  3  9  1  0  0  0
  4  5  1  0  0  0
  4 29  1  0  0  0
  5  6  2  0  0  0
  6  7  1  0  0  0
  6  8  1  0  0  0
  7 14  1  0  0  0
  7 30  1  0  0  0
  8  9  2  0  0  0
  9 10  1  0  0  0
 10 11  1  0  0  0
 10 12  1  0  0  0
 11 31  1  0  0  0
 11 32  1  0  0  0
 11 33  1  0  0  0
 12 13  2  0  0  0
 14 19  1  0  0  0
 14 15  1  0  0  0
 14 34  1  0  0  0
 15 16  1  0  0  0
 15 35  1  0  0  0
 15 36  1  0  0  0
 16 17  1  0  0  0
 16 37  1  0  0  0
 16 38  1  0  0  0
 17 18  1  0  0  0
 18 19  1  0  0  0
 18 39  1  0  0  0
 18 40  1  0  0  0
 19 41  1  0  0  0
 19 42  1  0  0  0
 20 24  1  0  0  0
 20 43  1  0  0  0
 20 44  1  0  0  0
 21 22  2  0  0  0
 21 27  1  0  0  0
 21 45  1  0  0  0
 22 23  1  0  0  0
 22 46  1  0  0  0
 23 24  2  0  0  0
 23 47  1  0  0  0
 24 25  1  0  0  0
 25 26  1  0  0  0
 25 27  2  0  0  0
 27 48  1  0  0  0
M  END
> <s_m_entry_id>
1467

> <MODEL>
1

> <REMARK>
 VINA RESULT:    -8.463      0.000      0.000
 INTER + INTRA:         -10.256
 INTER:                  -9.948
 INTRA:                  -0.308
 UNBOUND:                -0.308
  Name = /scratch/kmzp800/tmpa57knzjp/tmpsd1by3ec.pdb
  4 active torsions:
  status: ('A' for Active; 'I' for Inactive)
    1  A    between atoms: C4_4  and  C5_5
    2  A    between atoms: C5_5  and  C6_6
    3  A    between atoms: N2_12  and  C11_13
    4  A    between atoms: N4_21  and  C17_22
                            x       y       z     vdW  Elec       q    Type
                         _______ _______ _______ _____ _____    ______ ____

> <TORSDO>
F 3

> <grid_id>
p38-prepared

> <grid_path>
/projects/mai/users/kmzp800_harry/pmx_colab/docking_jobs/p38/vina_docking/input_files/p38_vina.pdbqt

> <grid_filename>
p38_vina.pdbqt

> <docking_score>
-8.463

> <compound_name>
lig_p38a_2i

> <index_string>
12:0:0

> <s_m_Source_Path>
/projects/mai/users/kmzp800_harry/pmx_colab/docking_jobs/p38/gmx_prep

> <s_m_Source_File>
prepared_vina_naive_confs.sdf

> <i_m_Source_File_Index>
13

> <s_m_entry_id>
1366

> <s_m_Source_Path>
/projects/mai/users/kmzp800_harry/pmx_colab/docking_jobs/p38

> <s_m_Source_File>
p38_confs_vina_naive.sdf

> <i_m_Source_File_Index>
13

$$$$
lig_p38a_2q
                    3D
 Schrodinger Suite 2021-4.
 59 63  0  0  1  0            999 V2000
   33.5600   35.9680   20.0820 C   0  0  0  0  0  0
   33.8160   37.3300   20.2170 C   0  0  0  0  0  0
   33.5600   37.9660   21.4240 C   0  0  0  0  0  0
   33.8150   39.3240   21.5900 C   0  0  0  0  0  0
   33.5590   39.9180   22.7850 N   0  0  0  0  0  0
   33.0560   39.2070   23.8270 C   0  0  0  0  0  0
   32.7980   39.8630   25.0710 N   0  0  0  0  0  0
   32.8010   37.8780   23.6820 N   0  0  0  0  0  0
   33.0390   37.2350   22.5050 C   0  0  0  0  0  0
   32.7670   35.8980   22.3660 N   0  0  0  0  0  0
   33.0040   35.2610   21.1690 C   0  0  0  0  0  0
   32.7060   34.0420   21.0300 O   0  0  0  0  0  0
   32.2020   35.1780   23.5160 C   0  0  0  0  0  0
   30.7100   34.8470   23.3110 C   0  0  0  0  0  0
   30.4410   33.3780   23.0040 C   0  0  0  0  0  0
   31.0160   32.3780   24.3620 S   0  0  0  0  0  0
   29.9450   32.2700   25.4090 O   0  0  0  0  0  0
   31.3790   31.0080   23.8650 O   0  0  0  0  0  0
   32.4520   33.1750   25.0500 C   0  0  0  0  0  0
   33.1100   34.0210   23.9710 C   0  0  0  0  0  0
   32.2440   39.1710   26.2250 C   0  0  0  0  0  0
   31.0490   38.3160   25.7940 C   0  0  0  0  0  0
   30.7000   37.2570   26.8510 C   0  0  0  0  0  0
   31.3420   37.5210   28.0740 O   0  0  0  0  0  0
   32.7100   37.2780   27.8540 C   0  0  0  0  0  0
   33.3250   38.3300   26.9170 C   0  0  0  0  0  0
   33.8280   35.3620   18.8470 O   0  0  0  0  0  0
   37.3980   35.9200   18.0810 C   0  0  0  0  0  0
   36.2020   35.7500   18.7820 C   0  0  0  0  0  0
   35.0000   35.5350   18.0970 C   0  0  0  0  0  0
   35.0150   35.4600   16.6880 C   0  0  0  0  0  0
   33.8860   35.1840   15.9900 F   0  0  0  0  0  0
   36.2150   35.6310   15.9910 C   0  0  0  0  0  0
   37.4040   35.8680   16.6860 C   0  0  0  0  0  0
   38.5630   36.0340   16.0060 F   0  0  0  0  0  0
   34.2205   37.9012   19.3684 H   0  0  0  0  0  0
   34.2226   39.9147   20.7564 H   0  0  0  0  0  0
   33.0132   40.8669   25.1537 H   0  0  0  0  0  0
   32.1927   35.8482   24.3882 H   0  0  0  0  0  0
   30.1663   35.1144   24.2291 H   0  0  0  0  0  0
   30.3715   35.4235   22.4375 H   0  0  0  0  0  0
   29.3608   33.2234   22.8653 H   0  0  0  0  0  0
   30.9714   33.0906   22.0842 H   0  0  0  0  0  0
   32.1506   33.8175   25.8905 H   0  0  0  0  0  0
   33.1611   32.4166   25.4132 H   0  0  0  0  0  0
   33.3327   33.3816   23.1041 H   0  0  0  0  0  0
   34.0299   34.4541   24.3908 H   0  0  0  0  0  0
   31.8865   39.9109   26.9563 H   0  0  0  0  0  0
   30.1778   38.9705   25.6433 H   0  0  0  0  0  0
   31.3163   37.7965   24.8620 H   0  0  0  0  0  0
   29.6117   37.2563   27.0110 H   0  0  0  0  0  0
   31.0417   36.2775   26.4853 H   0  0  0  0  0  0
   33.2378   37.3063   28.8187 H   0  0  0  0  0  0
   32.8135   36.2908   27.3800 H   0  0  0  0  0  0
   33.9244   37.8179   26.1499 H   0  0  0  0  0  0
   33.9514   39.0037   27.5201 H   0  0  0  0  0  0
   38.3359   36.0950   18.6285 H   0  0  0  0  0  0
   36.2044   35.7853   19.8814 H   0  0  0  0  0  0
   36.2232   35.5788   14.8923 H   0  0  0  0  0  0
  1  2  2  0  0  0
  1 11  1  0  0  0
  1 27  1  0  0  0
  2  3  1  0  0  0
  2 36  1  0  0  0
  3  4  2  0  0  0
  3  9  1  0  0  0
  4  5  1  0  0  0
  4 37  1  0  0  0
  5  6  2  0  0  0
  6  7  1  0  0  0
  6  8  1  0  0  0
  7 21  1  0  0  0
  7 38  1  0  0  0
  8  9  2  0  0  0
  9 10  1  0  0  0
 10 13  1  0  0  0
 10 11  1  0  0  0
 11 12  2  0  0  0
 13 20  1  0  0  0
 13 14  1  0  0  0
 13 39  1  0  0  0
 14 15  1  0  0  0
 14 40  1  0  0  0
 14 41  1  0  0  0
 15 16  1  0  0  0
 15 42  1  0  0  0
 15 43  1  0  0  0
 16 19  1  0  0  0
 16 17  2  0  0  0
 16 18  2  0  0  0
 19 20  1  0  0  0
 19 44  1  0  0  0
 19 45  1  0  0  0
 20 46  1  0  0  0
 20 47  1  0  0  0
 21 26  1  0  0  0
 21 22  1  0  0  0
 21 48  1  0  0  0
 22 23  1  0  0  0
 22 49  1  0  0  0
 22 50  1  0  0  0
 23 24  1  0  0  0
 23 51  1  0  0  0
 23 52  1  0  0  0
 24 25  1  0  0  0
 25 26  1  0  0  0
 25 53  1  0  0  0
 25 54  1  0  0  0
 26 55  1  0  0  0
 26 56  1  0  0  0
 27 30  1  0  0  0
 28 29  2  0  0  0
 28 34  1  0  0  0
 28 57  1  0  0  0
 29 30  1  0  0  0
 29 58  1  0  0  0
 30 31  2  0  0  0
 31 32  1  0  0  0
 31 33  1  0  0  0
 33 34  2  0  0  0
 33 59  1  0  0  0
 34 35  1  0  0  0
M  END
> <s_m_entry_id>
1468

> <MODEL>
1

> <REMARK>
 VINA RESULT:    -9.457      0.000      0.000
 INTER + INTRA:         -11.431
 INTER:                 -11.668
 INTRA:                   0.236
 UNBOUND:                 0.236
  Name = /scratch/kmzp800/tmpjih4m6fe/tmpaw9zyuoj.pdb
  4 active torsions:
  status: ('A' for Active; 'I' for Inactive)
    1  A    between atoms: C3_3  and  O1_4
    2  A    between atoms: O1_4  and  C4_5
    3  A    between atoms: N2_11  and  C9_12
    4  A    between atoms: N4_20  and  C15_21
                            x       y       z     vdW  Elec       q    Type
                         _______ _______ _______ _____ _____    ______ ____

> <TORSDO>
F 4

> <grid_id>
p38-prepared

> <grid_path>
/projects/mai/users/kmzp800_harry/pmx_colab/docking_jobs/p38/vina_docking/input_files/p38_vina.pdbqt

> <grid_filename>
p38_vina.pdbqt

> <docking_score>
-9.457

> <compound_name>
lig_p38a_2q

> <index_string>
13:0:0

> <s_m_Source_Path>
/projects/mai/users/kmzp800_harry/pmx_colab/docking_jobs/p38/gmx_prep

> <s_m_Source_File>
prepared_vina_naive_confs.sdf

> <i_m_Source_File_Index>
14

> <s_m_entry_id>
1367

> <s_m_Source_Path>
/projects/mai/users/kmzp800_harry/pmx_colab/docking_jobs/p38

> <s_m_Source_File>
p38_confs_vina_naive.sdf

> <i_m_Source_File_Index>
14

$$$$
lig_p38a_2h
                    3D
 Schrodinger Suite 2021-4.
 46 49  0  0  1  0            999 V2000
   32.3910   38.2120   24.2800 C   0  0  0  0  0  0
   33.2460   38.7770   23.3360 C   0  0  0  0  0  0
   33.7000   38.0060   22.2720 C   0  0  0  0  0  0
   34.5520   38.5390   21.3090 C   0  0  0  0  0  0
   34.9770   37.7590   20.2810 N   0  0  0  0  0  0
   34.5830   36.4590   20.1740 C   0  0  0  0  0  0
   35.0360   35.6450   19.0860 N   0  0  0  0  0  0
   33.7520   35.9240   21.1070 N   0  0  0  0  0  0
   33.2970   36.6650   22.1570 C   0  0  0  0  0  0
   32.4610   36.1180   23.0940 N   0  0  0  0  0  0
   32.0470   34.7230   22.9700 C   0  0  0  0  0  0
   32.0050   36.8670   24.1480 C   0  0  0  0  0  0
   31.2360   36.3520   25.0080 O   0  0  0  0  0  0
   35.9280   36.0970   18.0230 C   0  0  0  0  0  0
   35.5180   35.5070   16.6730 C   0  0  0  0  0  0
   36.5870   35.8500   15.6350 C   0  0  0  0  0  0
   37.8300   35.3250   16.0350 O   0  0  0  0  0  0
   38.2550   36.0900   17.1370 C   0  0  0  0  0  0
   37.3870   35.7750   18.3550 C   0  0  0  0  0  0
   31.8100   39.2220   25.6450 S   0  0  0  0  0  0
   35.1550   37.7930   28.4490 C   0  0  0  0  0  0
   35.4380   38.6850   27.4100 C   0  0  0  0  0  0
   34.4150   39.1160   26.5610 C   0  0  0  0  0  0
   33.1070   38.6560   26.7460 C   0  0  0  0  0  0
   32.8230   37.7650   27.7920 C   0  0  0  0  0  0
   31.5600   37.3130   27.9890 F   0  0  0  0  0  0
   33.8480   37.3340   28.6390 C   0  0  0  0  0  0
   33.5599   39.8269   23.4321 H   0  0  0  0  0  0
   34.8796   39.5867   21.3799 H   0  0  0  0  0  0
   34.7082   34.6692   19.0513 H   0  0  0  0  0  0
   31.9180   34.2883   23.9722 H   0  0  0  0  0  0
   31.0946   34.6705   22.4222 H   0  0  0  0  0  0
   32.8166   34.1594   22.4222 H   0  0  0  0  0  0
   35.8387   37.1908   17.9475 H   0  0  0  0  0  0
   35.4260   34.4144   16.7606 H   0  0  0  0  0  0
   34.5499   35.9268   16.3624 H   0  0  0  0  0  0
   36.3042   35.4178   14.6638 H   0  0  0  0  0  0
   36.6677   36.9435   15.5464 H   0  0  0  0  0  0
   39.3040   35.8499   17.3648 H   0  0  0  0  0  0
   38.1626   37.1586   16.8931 H   0  0  0  0  0  0
   37.7144   36.3858   19.2092 H   0  0  0  0  0  0
   37.4831   34.7105   18.6149 H   0  0  0  0  0  0
   35.9603   37.4525   29.1166 H   0  0  0  0  0  0
   36.4658   39.0475   27.2609 H   0  0  0  0  0  0
   34.6390   39.8189   25.7450 H   0  0  0  0  0  0
   33.6260   36.6324   29.4566 H   0  0  0  0  0  0
  1 20  1  0  0  0
  1  2  2  0  0  0
  1 12  1  0  0  0
  2  3  1  0  0  0
  2 28  1  0  0  0
  3  4  2  0  0  0
  3  9  1  0  0  0
  4  5  1  0  0  0
  4 29  1  0  0  0
  5  6  2  0  0  0
  6  8  1  0  0  0
  6  7  1  0  0  0
  7 14  1  0  0  0
  7 30  1  0  0  0
  8  9  2  0  0  0
  9 10  1  0  0  0
 10 12  1  0  0  0
 10 11  1  0  0  0
 11 31  1  0  0  0
 11 32  1  0  0  0
 11 33  1  0  0  0
 12 13  2  0  0  0
 14 19  1  0  0  0
 14 15  1  0  0  0
 14 34  1  0  0  0
 15 16  1  0  0  0
 15 35  1  0  0  0
 15 36  1  0  0  0
 16 17  1  0  0  0
 16 37  1  0  0  0
 16 38  1  0  0  0
 17 18  1  0  0  0
 18 19  1  0  0  0
 18 39  1  0  0  0
 18 40  1  0  0  0
 19 41  1  0  0  0
 19 42  1  0  0  0
 20 24  1  0  0  0
 21 27  2  0  0  0
 21 22  1  0  0  0
 21 43  1  0  0  0
 22 23  2  0  0  0
 22 44  1  0  0  0
 23 24  1  0  0  0
 23 45  1  0  0  0
 24 25  2  0  0  0
 25 26  1  0  0  0
 25 27  1  0  0  0
 27 46  1  0  0  0
M  END
> <s_m_entry_id>
1469

> <MODEL>
1

> <REMARK>
 VINA RESULT:    -7.734      0.000      0.000
 INTER + INTRA:          -9.713
 INTER:                  -9.090
 INTRA:                  -0.623
 UNBOUND:                -0.623
  Name = /scratch/kmzp800/tmpcgqigpb6/tmps7n_upu0.pdb
  4 active torsions:
  status: ('A' for Active; 'I' for Inactive)
    1  A    between atoms: C4_4  and  S1_5
    2  A    between atoms: S1_5  and  C5_6
    3  A    between atoms: N2_12  and  C10_13
    4  A    between atoms: N4_21  and  C16_22
                            x       y       z     vdW  Elec       q    Type
                         _______ _______ _______ _____ _____    ______ ____

> <TORSDO>
F 3

> <grid_id>
p38-prepared

> <grid_path>
/projects/mai/users/kmzp800_harry/pmx_colab/docking_jobs/p38/vina_docking/input_files/p38_vina.pdbqt

> <grid_filename>
p38_vina.pdbqt

> <docking_score>
-7.734

> <compound_name>
lig_p38a_2h

> <index_string>
14:0:0

> <s_m_Source_Path>
/projects/mai/users/kmzp800_harry/pmx_colab/docking_jobs/p38/gmx_prep

> <s_m_Source_File>
prepared_vina_naive_confs.sdf

> <i_m_Source_File_Index>
15

> <s_m_entry_id>
1368

> <s_m_Source_Path>
/projects/mai/users/kmzp800_harry/pmx_colab/docking_jobs/p38

> <s_m_Source_File>
p38_confs_vina_naive.sdf

> <i_m_Source_File_Index>
15

$$$$
lig_p38a_2e
                    3D
 Schrodinger Suite 2021-4.
 46 49  0  0  1  0            999 V2000
   33.7020   36.1950   20.4360 C   0  0  0  0  0  0
   33.5690   37.5720   20.6050 C   0  0  0  0  0  0
   33.3220   38.0930   21.8700 C   0  0  0  0  0  0
   33.1740   39.4630   22.0690 C   0  0  0  0  0  0
   32.9290   39.9390   23.3170 N   0  0  0  0  0  0
   32.8230   39.1000   24.3810 C   0  0  0  0  0  0
   32.5660   39.6380   25.6800 N   0  0  0  0  0  0
   32.9690   37.7580   24.2050 N   0  0  0  0  0  0
   33.2160   37.2300   22.9740 C   0  0  0  0  0  0
   33.3680   35.8800   22.8040 N   0  0  0  0  0  0
   33.2720   34.9920   23.9590 C   0  0  0  0  0  0
   33.6210   35.3520   21.5640 C   0  0  0  0  0  0
   33.8110   34.1120   21.4320 O   0  0  0  0  0  0
   32.4140   38.8050   26.8630 C   0  0  0  0  0  0
   32.6450   39.6430   28.1220 C   0  0  0  0  0  0
   32.0910   38.9500   29.3760 C   0  0  0  0  0  0
   31.7870   37.6000   29.1230 O   0  0  0  0  0  0
   30.6690   37.6070   28.2680 C   0  0  0  0  0  0
   31.0350   38.1340   26.8710 C   0  0  0  0  0  0
   33.9550   35.7020   19.1470 O   0  0  0  0  0  0
   37.6110   35.9670   18.6740 C   0  0  0  0  0  0
   36.3540   35.9050   19.2820 C   0  0  0  0  0  0
   35.2000   35.7390   18.5070 C   0  0  0  0  0  0
   35.3180   35.6500   17.1090 C   0  0  0  0  0  0
   36.5750   35.7100   16.5010 C   0  0  0  0  0  0
   37.7220   35.8670   17.2840 C   0  0  0  0  0  0
   38.9410   35.9260   16.6970 F   0  0  0  0  0  0
   33.6592   38.2450   19.7396 H   0  0  0  0  0  0
   33.2552   40.1567   21.2192 H   0  0  0  0  0  0
   32.4849   40.6596   25.7830 H   0  0  0  0  0  0
   33.3361   35.5846   24.8835 H   0  0  0  0  0  0
   32.3109   34.4577   23.9318 H   0  0  0  0  0  0
   34.0967   34.2646   23.9318 H   0  0  0  0  0  0
   33.1685   38.0047   26.8455 H   0  0  0  0  0  0
   33.7258   39.8021   28.2509 H   0  0  0  0  0  0
   32.1173   40.6002   27.9981 H   0  0  0  0  0  0
   32.8433   39.0037   30.1767 H   0  0  0  0  0  0
   31.1655   39.4635   29.6757 H   0  0  0  0  0  0
   30.2839   36.5809   28.1739 H   0  0  0  0  0  0
   29.9066   38.2718   28.7002 H   0  0  0  0  0  0
   30.2789   38.8688   26.5575 H   0  0  0  0  0  0
   31.0644   37.2799   26.1784 H   0  0  0  0  0  0
   38.5136   36.0946   19.2897 H   0  0  0  0  0  0
   36.2710   35.9871   20.3758 H   0  0  0  0  0  0
   34.4161   35.5325   16.4903 H   0  0  0  0  0  0
   36.6615   35.6337   15.4071 H   0  0  0  0  0  0
  1  2  2  0  0  0
  1 12  1  0  0  0
  1 20  1  0  0  0
  2  3  1  0  0  0
  2 28  1  0  0  0
  3  4  2  0  0  0
  3  9  1  0  0  0
  4  5  1  0  0  0
  4 29  1  0  0  0
  5  6  2  0  0  0
  6  7  1  0  0  0
  6  8  1  0  0  0
  7 14  1  0  0  0
  7 30  1  0  0  0
  8  9  2  0  0  0
  9 10  1  0  0  0
 10 11  1  0  0  0
 10 12  1  0  0  0
 11 31  1  0  0  0
 11 32  1  0  0  0
 11 33  1  0  0  0
 12 13  2  0  0  0
 14 19  1  0  0  0
 14 15  1  0  0  0
 14 34  1  0  0  0
 15 16  1  0  0  0
 15 35  1  0  0  0
 15 36  1  0  0  0
 16 17  1  0  0  0
 16 37  1  0  0  0
 16 38  1  0  0  0
 17 18  1  0  0  0
 18 19  1  0  0  0
 18 39  1  0  0  0
 18 40  1  0  0  0
 19 41  1  0  0  0
 19 42  1  0  0  0
 20 23  1  0  0  0
 21 22  2  0  0  0
 21 26  1  0  0  0
 21 43  1  0  0  0
 22 23  1  0  0  0
 22 44  1  0  0  0
 23 24  2  0  0  0
 24 25  1  0  0  0
 24 45  1  0  0  0
 25 26  2  0  0  0
 25 46  1  0  0  0
 26 27  1  0  0  0
M  END
> <s_m_entry_id>
1470

> <MODEL>
1

> <REMARK>
 VINA RESULT:    -8.558      0.000      0.000
 INTER + INTRA:         -10.536
 INTER:                 -10.059
 INTRA:                  -0.477
 UNBOUND:                -0.477
  Name = /scratch/kmzp800/tmpzafzk4_q/tmp1bng5gy6.pdb
  4 active torsions:
  status: ('A' for Active; 'I' for Inactive)
    1  A    between atoms: C3_3  and  O1_4
    2  A    between atoms: O1_4  and  C4_5
    3  A    between atoms: N2_11  and  C9_12
    4  A    between atoms: N4_20  and  C15_21
                            x       y       z     vdW  Elec       q    Type
                         _______ _______ _______ _____ _____    ______ ____

> <TORSDO>
F 3

> <grid_id>
p38-prepared

> <grid_path>
/projects/mai/users/kmzp800_harry/pmx_colab/docking_jobs/p38/vina_docking/input_files/p38_vina.pdbqt

> <grid_filename>
p38_vina.pdbqt

> <docking_score>
-8.558

> <compound_name>
lig_p38a_2e

> <index_string>
15:0:0

> <s_m_Source_Path>
/projects/mai/users/kmzp800_harry/pmx_colab/docking_jobs/p38/gmx_prep

> <s_m_Source_File>
prepared_vina_naive_confs.sdf

> <i_m_Source_File_Index>
16

> <s_m_entry_id>
1369

> <s_m_Source_Path>
/projects/mai/users/kmzp800_harry/pmx_colab/docking_jobs/p38

> <s_m_Source_File>
p38_confs_vina_naive.sdf

> <i_m_Source_File_Index>
16

$$$$
lig_p38a_3fmk
                    3D
 Schrodinger Suite 2021-4.
 46 49  0  0  1  0            999 V2000
   34.4470   39.5410   25.8700 N   0  0  0  0  0  0
   34.3760   39.0300   24.5380 C   0  0  0  0  0  0
   34.0900   39.8740   23.5110 N   0  0  0  0  0  0
   34.0130   39.4220   22.2330 C   0  0  0  0  0  0
   34.2270   38.0740   21.9620 C   0  0  0  0  0  0
   34.1600   37.5810   20.6650 C   0  0  0  0  0  0
   34.3890   36.2270   20.4230 C   0  0  0  0  0  0
   34.6520   35.3690   21.5140 C   0  0  0  0  0  0
   34.7970   34.1320   21.3150 O   0  0  0  0  0  0
   34.7240   35.8730   22.7870 N   0  0  0  0  0  0
   35.0110   34.9740   23.9010 C   0  0  0  0  0  0
   34.5190   37.2050   23.0280 C   0  0  0  0  0  0
   34.5850   37.7070   24.2920 N   0  0  0  0  0  0
   34.7730   38.7080   27.0180 C   0  0  1  0  0  0
   35.9370   39.3170   27.7820 C   0  0  0  0  0  0
   33.5560   38.6040   27.9230 C   0  0  0  0  0  0
   31.0600   36.8620   26.1470 C   0  0  0  0  0  0
   30.5900   38.1240   26.0430 N   0  0  0  0  0  0
   31.4530   38.8870   26.6910 N   0  0  0  0  0  0
   32.4080   38.1170   27.1770 N   0  0  3  0  0  0
   32.2070   36.8520   26.8570 N   0  0  0  0  0  0
   34.3080   35.7640   19.1020 O   0  0  0  0  0  0
   35.3570   35.7770   18.1730 C   0  0  0  0  0  0
   36.6620   35.9610   18.6470 C   0  0  0  0  0  0
   37.7430   35.9710   17.7620 C   0  0  0  0  0  0
   37.5290   35.7890   16.3940 C   0  0  0  0  0  0
   38.5770   35.8000   15.5370 F   0  0  0  0  0  0
   36.2340   35.5820   15.9120 C   0  0  0  0  0  0
   35.1480   35.5700   16.7930 C   0  0  0  0  0  0
   33.9100   35.3190   16.3020 F   0  0  0  0  0  0
   34.2594   40.5419   26.0246 H   0  0  0  0  0  0
   33.7821   40.1194   21.4142 H   0  0  0  0  0  0
   33.9266   38.2579   19.8299 H   0  0  0  0  0  0
   34.8424   35.5021   24.8511 H   0  0  0  0  0  0
   34.3478   34.0982   23.8456 H   0  0  0  0  0  0
   36.0590   34.6444   23.8456 H   0  0  0  0  0  0
   35.0602   37.7032   26.6745 H   0  0  0  0  0  0
   35.7559   39.2222   28.8628 H   0  0  0  0  0  0
   36.8652   38.7890   27.5181 H   0  0  0  0  0  0
   36.0325   40.3806   27.5181 H   0  0  0  0  0  0
   33.7751   37.9076   28.7458 H   0  0  0  0  0  0
   33.3234   39.6019   28.3230 H   0  0  0  0  0  0
   30.5779   35.9723   25.7157 H   0  0  0  0  0  0
   36.8371   36.0987   19.7242 H   0  0  0  0  0  0
   38.7637   36.1224   18.1431 H   0  0  0  0  0  0
   36.0681   35.4279   14.8356 H   0  0  0  0  0  0
  1 14  1  0  0  0
  1  2  1  0  0  0
  1 31  1  0  0  0
  2  3  2  0  0  0
  2 13  1  0  0  0
  3  4  1  0  0  0
  4  5  2  0  0  0
  4 32  1  0  0  0
  5 12  1  0  0  0
  5  6  1  0  0  0
  6  7  2  0  0  0
  6 33  1  0  0  0
  7  8  1  0  0  0
  7 22  1  0  0  0
  8 10  1  0  0  0
  8  9  2  0  0  0
 10 12  1  0  0  0
 10 11  1  0  0  0
 11 34  1  0  0  0
 11 35  1  0  0  0
 11 36  1  0  0  0
 12 13  2  0  0  0
 14 15  1  0  0  0
 14 16  1  0  0  0
 14 37  1  0  0  0
 15 38  1  0  0  0
 15 39  1  0  0  0
 15 40  1  0  0  0
 16 20  1  0  0  0
 16 41  1  0  0  0
 16 42  1  0  0  0
 17 21  2  0  0  0
 17 18  1  0  0  0
 17 43  1  0  0  0
 18 19  2  0  0  0
 19 20  1  0  0  0
 20 21  1  0  0  0
 22 23  1  0  0  0
 23 24  2  0  0  0
 23 29  1  0  0  0
 24 25  1  0  0  0
 24 44  1  0  0  0
 25 26  2  0  0  0
 25 45  1  0  0  0
 26 27  1  0  0  0
 26 28  1  0  0  0
 28 29  2  0  0  0
 28 46  1  0  0  0
 29 30  1  0  0  0
M  END
> <s_m_entry_id>
1471

> <MODEL>
1

> <REMARK>
 VINA RESULT:    -8.497      0.000      0.000
 INTER + INTRA:         -12.195
 INTER:                 -10.980
 INTRA:                  -1.214
 UNBOUND:                -1.214
  Name = /scratch/kmzp800/tmpo_eco283/tmpaf0c152j.pdb
  7 active torsions:
  status: ('A' for Active; 'I' for Inactive)
    1  A    between atoms: N3_4  and  C2_5
    2  A    between atoms: C2_5  and  C3_6
    3  A    between atoms: C3_6  and  N4_7
    4  A    between atoms: C3_6  and  C18_29
    5  A    between atoms: C8_13  and  O1_14
    6  A    between atoms: O1_14  and  C9_15
    7  A    between atoms: N6_25  and  C16_26
                            x       y       z     vdW  Elec       q    Type
                         _______ _______ _______ _____ _____    ______ ____

> <TORSDO>
F 5

> <grid_id>
p38-prepared

> <grid_path>
/projects/mai/users/kmzp800_harry/pmx_colab/docking_jobs/p38/vina_docking/input_files/p38_vina.pdbqt

> <grid_filename>
p38_vina.pdbqt

> <docking_score>
-8.497

> <compound_name>
lig_p38a_3fmk

> <index_string>
16:0:0

> <s_m_Source_Path>
/projects/mai/users/kmzp800_harry/pmx_colab/docking_jobs/p38/gmx_prep

> <s_m_Source_File>
prepared_vina_naive_confs.sdf

> <i_m_Source_File_Index>
17

> <s_m_entry_id>
1370

> <s_m_Source_Path>
/projects/mai/users/kmzp800_harry/pmx_colab/docking_jobs/p38

> <s_m_Source_File>
p38_confs_vina_naive.sdf

> <i_m_Source_File_Index>
17

$$$$
lig_p38a_2bb
                    3D
 Schrodinger Suite 2021-4.
 44 46  0  0  1  0            999 V2000
   33.4240   35.6960   19.7780 C   0  0  0  0  0  0
   33.3470   37.0200   20.2070 C   0  0  0  0  0  0
   33.0320   37.3030   21.5300 C   0  0  0  0  0  0
   32.9360   38.6150   21.9850 C   0  0  0  0  0  0
   32.6220   38.8580   23.2830 N   0  0  0  0  0  0
   32.3970   37.8360   24.1550 C   0  0  0  0  0  0
   32.0680   38.1030   25.5200 N   0  0  0  0  0  0
   32.4890   36.5480   23.7280 N   0  0  0  0  0  0
   32.8010   36.2520   22.4350 C   0  0  0  0  0  0
   32.8990   34.9530   22.0140 N   0  0  0  0  0  0
   32.6730   33.8660   22.9640 C   0  0  0  0  0  0
   33.2180   34.6580   20.7140 C   0  0  0  0  0  0
   33.3500   33.4560   20.3540 O   0  0  0  0  0  0
   33.7510   35.4490   18.4370 O   0  0  0  0  0  0
   37.4020   35.9540   18.2260 C   0  0  0  0  0  0
   36.1100   35.8080   18.7350 C   0  0  0  0  0  0
   35.0290   35.5790   17.8770 C   0  0  0  0  0  0
   35.2530   35.5270   16.4850 C   0  0  0  0  0  0
   34.2240   35.3760   15.6140 F   0  0  0  0  0  0
   36.5480   35.6750   15.9800 C   0  0  0  0  0  0
   37.6230   35.8810   16.8480 C   0  0  0  0  0  0
   38.8760   36.0210   16.3540 F   0  0  0  0  0  0
   31.9210   39.4520   26.0450 C   0  0  0  0  0  0
   32.4870   39.5280   27.4510 C   0  0  0  0  0  0
   31.7720   38.2570   28.4700 S   0  0  0  0  0  0
   32.5060   36.9630   28.2590 O   0  0  0  0  0  0
   30.3280   38.0760   28.0950 O   0  0  0  0  0  0
   31.8760   38.7250   30.1820 C   0  0  0  0  0  0
   33.5355   37.8401   19.4985 H   0  0  0  0  0  0
   33.1141   39.4526   21.2946 H   0  0  0  0  0  0
   31.9291   37.3071   26.1588 H   0  0  0  0  0  0
   32.7535   34.2534   23.9904 H   0  0  0  0  0  0
   31.6683   33.4460   22.8084 H   0  0  0  0  0  0
   33.4270   33.0803   22.8084 H   0  0  0  0  0  0
   38.2461   36.1265   18.9099 H   0  0  0  0  0  0
   35.9407   35.8736   19.8199 H   0  0  0  0  0  0
   36.7213   35.6291   14.8947 H   0  0  0  0  0  0
   32.4624   40.1561   25.3961 H   0  0  0  0  0  0
   30.8530   39.7139   26.0718 H   0  0  0  0  0  0
   33.5778   39.3915   27.4116 H   0  0  0  0  0  0
   32.2472   40.5112   27.8820 H   0  0  0  0  0  0
   31.6808   37.8466   30.8147 H   0  0  0  0  0  0
   32.8825   39.1141   30.3953 H   0  0  0  0  0  0
   31.1290   39.5038   30.3953 H   0  0  0  0  0  0
  1  2  2  0  0  0
  1 12  1  0  0  0
  1 14  1  0  0  0
  2  3  1  0  0  0
  2 29  1  0  0  0
  3  4  2  0  0  0
  3  9  1  0  0  0
  4  5  1  0  0  0
  4 30  1  0  0  0
  5  6  2  0  0  0
  6  7  1  0  0  0
  6  8  1  0  0  0
  7 23  1  0  0  0
  7 31  1  0  0  0
  8  9  2  0  0  0
  9 10  1  0  0  0
 10 11  1  0  0  0
 10 12  1  0  0  0
 11 32  1  0  0  0
 11 33  1  0  0  0
 11 34  1  0  0  0
 12 13  2  0  0  0
 14 17  1  0  0  0
 15 16  2  0  0  0
 15 21  1  0  0  0
 15 35  1  0  0  0
 16 17  1  0  0  0
 16 36  1  0  0  0
 17 18  2  0  0  0
 18 19  1  0  0  0
 18 20  1  0  0  0
 20 21  2  0  0  0
 20 37  1  0  0  0
 21 22  1  0  0  0
 23 24  1  0  0  0
 23 38  1  0  0  0
 23 39  1  0  0  0
 24 25  1  0  0  0
 24 40  1  0  0  0
 24 41  1  0  0  0
 25 28  1  0  0  0
 25 26  2  0  0  0
 25 27  2  0  0  0
 28 42  1  0  0  0
 28 43  1  0  0  0
 28 44  1  0  0  0
M  END
> <s_m_entry_id>
1472

> <MODEL>
1

> <REMARK>
 VINA RESULT:    -8.086      0.000      0.000
 INTER + INTRA:         -11.394
 INTER:                 -10.449
 INTRA:                  -0.945
 UNBOUND:                -0.945
  Name = /scratch/kmzp800/tmpfm7b0vmg/tmpomogryo9.pdb
  7 active torsions:
  status: ('A' for Active; 'I' for Inactive)
    1  A    between atoms: C3_3  and  O1_4
    2  A    between atoms: O1_4  and  C4_5
    3  A    between atoms: N2_11  and  C9_12
    4  A    between atoms: C9_12  and  C10_13
    5  A    between atoms: C10_13  and  S1_14
    6  A    between atoms: S1_14  and  C11_17
    7  A    between atoms: N4_20  and  C13_21
                            x       y       z     vdW  Elec       q    Type
                         _______ _______ _______ _____ _____    ______ ____

> <TORSDO>
F 5

> <grid_id>
p38-prepared

> <grid_path>
/projects/mai/users/kmzp800_harry/pmx_colab/docking_jobs/p38/vina_docking/input_files/p38_vina.pdbqt

> <grid_filename>
p38_vina.pdbqt

> <docking_score>
-8.086

> <compound_name>
lig_p38a_2bb

> <index_string>
17:0:0

> <s_m_Source_Path>
/projects/mai/users/kmzp800_harry/pmx_colab/docking_jobs/p38/gmx_prep

> <s_m_Source_File>
prepared_vina_naive_confs.sdf

> <i_m_Source_File_Index>
18

> <s_m_entry_id>
1371

> <s_m_Source_Path>
/projects/mai/users/kmzp800_harry/pmx_colab/docking_jobs/p38

> <s_m_Source_File>
p38_confs_vina_naive.sdf

> <i_m_Source_File_Index>
18

$$$$
lig_p38a_2aa
                    3D
 Schrodinger Suite 2021-4.
 43 45  0  0  1  0            999 V2000
   34.0500   39.5720   26.6640 N   0  0  0  0  0  0
   34.3540   38.6440   25.6160 C   0  0  0  0  0  0
   35.1850   37.5870   25.8400 N   0  0  0  0  0  0
   35.4780   36.7040   24.8510 C   0  0  0  0  0  0
   34.9250   36.8770   23.5860 C   0  0  0  0  0  0
   35.2050   35.9920   22.5510 C   0  0  0  0  0  0
   34.6390   36.1970   21.2880 C   0  0  0  0  0  0
   33.7790   37.2900   21.0940 C   0  0  0  0  0  0
   33.2550   37.4680   19.9600 O   0  0  0  0  0  0
   33.5110   38.1550   22.1230 N   0  0  0  0  0  0
   32.6180   39.2880   21.8970 C   0  0  0  0  0  0
   34.0700   37.9680   23.3600 C   0  0  0  0  0  0
   33.8060   38.8270   24.3850 N   0  0  0  0  0  0
   34.5690   39.4950   28.0280 C   0  0  0  0  0  0
   35.4200   40.7200   28.3440 C   0  0  0  0  0  0
   34.6080   41.7810   28.7450 O   0  0  0  0  0  0
   33.4290   39.3260   29.0240 C   0  0  0  0  0  0
   32.3070   40.0390   28.5990 O   0  0  0  0  0  0
   34.8810   35.3120   20.2250 O   0  0  0  0  0  0
   35.7270   35.5710   19.1380 C   0  0  0  0  0  0
   37.0810   35.8120   19.3910 C   0  0  0  0  0  0
   37.9640   36.0680   18.3380 C   0  0  0  0  0  0
   37.4970   36.0740   17.0210 C   0  0  0  0  0  0
   38.3510   36.3220   16.0000 F   0  0  0  0  0  0
   36.1510   35.8090   16.7560 C   0  0  0  0  0  0
   35.2640   35.5550   17.8070 C   0  0  0  0  0  0
   33.9770   35.2410   17.5180 F   0  0  0  0  0  0
   33.4174   40.3531   26.4391 H   0  0  0  0  0  0
   36.1496   35.8556   25.0490 H   0  0  0  0  0  0
   35.8697   35.1329   22.7246 H   0  0  0  0  0  0
   32.2944   39.6986   22.8648 H   0  0  0  0  0  0
   33.1488   40.0654   21.3280 H   0  0  0  0  0  0
   31.7381   38.9535   21.3280 H   0  0  0  0  0  0
   35.2167   38.6101   28.1137 H   0  0  0  0  0  0
   36.1233   40.4747   29.1535 H   0  0  0  0  0  0
   35.9745   41.0142   27.4407 H   0  0  0  0  0  0
   34.5790   41.8189   29.7338 H   0  0  0  0  0  0
   33.1724   38.2594   29.1048 H   0  0  0  0  0  0
   33.7487   39.7110   30.0036 H   0  0  0  0  0  0
   31.8018   40.3600   29.3876 H   0  0  0  0  0  0
   37.4538   35.8000   20.4258 H   0  0  0  0  0  0
   39.0261   36.2647   18.5460 H   0  0  0  0  0  0
   35.7879   35.8001   15.7177 H   0  0  0  0  0  0
  1 14  1  0  0  0
  1  2  1  0  0  0
  1 28  1  0  0  0
  2  3  2  0  0  0
  2 13  1  0  0  0
  3  4  1  0  0  0
  4  5  2  0  0  0
  4 29  1  0  0  0
  5  6  1  0  0  0
  5 12  1  0  0  0
  6  7  2  0  0  0
  6 30  1  0  0  0
  7  8  1  0  0  0
  7 19  1  0  0  0
  8 10  1  0  0  0
  8  9  2  0  0  0
 10 12  1  0  0  0
 10 11  1  0  0  0
 11 31  1  0  0  0
 11 32  1  0  0  0
 11 33  1  0  0  0
 12 13  2  0  0  0
 14 15  1  0  0  0
 14 17  1  0  0  0
 14 34  1  0  0  0
 15 16  1  0  0  0
 15 35  1  0  0  0
 15 36  1  0  0  0
 16 37  1  0  0  0
 17 18  1  0  0  0
 17 38  1  0  0  0
 17 39  1  0  0  0
 18 40  1  0  0  0
 19 20  1  0  0  0
 20 21  2  0  0  0
 20 26  1  0  0  0
 21 22  1  0  0  0
 21 41  1  0  0  0
 22 23  2  0  0  0
 22 42  1  0  0  0
 23 24  1  0  0  0
 23 25  1  0  0  0
 25 26  2  0  0  0
 25 43  1  0  0  0
 26 27  1  0  0  0
M  END
> <s_m_entry_id>
1473

> <MODEL>
1

> <REMARK>
 VINA RESULT:    -7.445      0.000      0.000
 INTER + INTRA:         -10.864
 INTER:                 -10.057
 INTRA:                  -0.808
 UNBOUND:                -0.808
  Name = /scratch/kmzp800/tmpwh12y8vr/tmphlw3co14.pdb
  8 active torsions:
  status: ('A' for Active; 'I' for Inactive)
    1  A    between atoms: O1_1  and  C1_2
    2  A    between atoms: C1_2  and  C2_3
    3  A    between atoms: C2_3  and  N1_4
    4  A    between atoms: C2_3  and  C17_26
    5  A    between atoms: C7_10  and  O2_11
    6  A    between atoms: O2_11  and  C8_12
    7  A    between atoms: N3_22  and  C15_23
    8  A    between atoms: C17_26  and  O4_27
                            x       y       z     vdW  Elec       q    Type
                         _______ _______ _______ _____ _____    ______ ____

> <TORSDO>
F 7

> <grid_id>
p38-prepared

> <grid_path>
/projects/mai/users/kmzp800_harry/pmx_colab/docking_jobs/p38/vina_docking/input_files/p38_vina.pdbqt

> <grid_filename>
p38_vina.pdbqt

> <docking_score>
-7.445

> <compound_name>
lig_p38a_2aa

> <index_string>
18:0:0

> <s_m_Source_Path>
/projects/mai/users/kmzp800_harry/pmx_colab/docking_jobs/p38/gmx_prep

> <s_m_Source_File>
prepared_vina_naive_confs.sdf

> <i_m_Source_File_Index>
19

> <s_m_entry_id>
1372

> <s_m_Source_Path>
/projects/mai/users/kmzp800_harry/pmx_colab/docking_jobs/p38

> <s_m_Source_File>
p38_confs_vina_naive.sdf

> <i_m_Source_File_Index>
19

$$$$
lig_p38a_2n
                    3D
 Schrodinger Suite 2021-4.
 53 56  0  0  1  0            999 V2000
   32.8400   34.5180   22.0400 N   0  0  0  0  0  0
   33.1930   34.4510   20.7150 C   0  0  0  0  0  0
   33.2700   33.3350   20.1320 O   0  0  0  0  0  0
   33.4740   35.6210   19.9920 C   0  0  0  0  0  0
   33.3640   36.8600   20.6330 C   0  0  0  0  0  0
   32.9990   36.9160   21.9710 C   0  0  0  0  0  0
   32.8840   38.1320   22.6370 C   0  0  0  0  0  0
   32.5230   38.1510   23.9450 N   0  0  0  0  0  0
   32.2670   37.0000   24.6240 C   0  0  0  0  0  0
   31.8860   37.0230   26.0040 N   0  0  0  0  0  0
   32.3740   35.8030   23.9870 N   0  0  0  0  0  0
   32.7350   35.7290   22.6750 C   0  0  0  0  0  0
   31.7210   38.2020   26.8540 C   0  0  0  0  0  0
   30.7610   37.9660   28.0270 C   0  0  0  0  0  0
   31.5250   37.5990   29.3000 C   0  0  0  0  0  0
   32.5030   38.5710   29.5690 O   0  0  0  0  0  0
   33.5190   38.3660   28.6230 C   0  0  0  0  0  0
   33.0570   38.8470   27.2470 C   0  0  0  0  0  0
   32.5690   33.2800   22.7770 C   0  0  0  0  0  0
   31.1080   32.8710   22.6380 C   0  0  0  0  0  0
   30.9930   31.3880   22.3450 C   0  0  0  0  0  0
   31.7120   31.0850   21.1900 O   0  0  0  0  0  0
   33.8180   35.5280   18.6340 O   0  0  0  0  0  0
   35.1180   35.6380   18.1240 C   0  0  0  0  0  0
   36.1720   35.8410   19.0210 C   0  0  0  0  0  0
   37.4850   35.9660   18.5570 C   0  0  0  0  0  0
   37.7500   35.8960   17.1880 C   0  0  0  0  0  0
   39.0220   36.0160   16.7380 F   0  0  0  0  0  0
   36.7020   35.7200   16.2810 C   0  0  0  0  0  0
   35.3880   35.5920   16.7410 C   0  0  0  0  0  0
   34.3830   35.4840   15.8370 F   0  0  0  0  0  0
   33.5664   37.7877   20.0777 H   0  0  0  0  0  0
   33.0848   39.0740   22.1056 H   0  0  0  0  0  0
   31.7088   36.1099   26.4464 H   0  0  0  0  0  0
   31.2184   38.9605   26.2359 H   0  0  0  0  0  0
   30.1823   38.8839   28.2076 H   0  0  0  0  0  0
   30.0927   37.1315   27.7684 H   0  0  0  0  0  0
   30.8221   37.5457   30.1444 H   0  0  0  0  0  0
   32.0136   36.6234   29.1600 H   0  0  0  0  0  0
   34.4154   38.9284   28.9234 H   0  0  0  0  0  0
   33.7524   37.2923   28.5706 H   0  0  0  0  0  0
   33.8182   38.5799   26.4992 H   0  0  0  0  0  0
   32.9191   39.9376   27.2872 H   0  0  0  0  0  0
   33.2068   32.4772   22.3787 H   0  0  0  0  0  0
   32.7854   33.4513   23.8418 H   0  0  0  0  0  0
   30.5791   33.0960   23.5759 H   0  0  0  0  0  0
   30.6611   33.4322   21.8042 H   0  0  0  0  0  0
   31.3997   30.8146   23.1910 H   0  0  0  0  0  0
   29.9352   31.1245   22.1979 H   0  0  0  0  0  0
   32.5950   30.7129   21.4390 H   0  0  0  0  0  0
   35.9662   35.9028   20.0998 H   0  0  0  0  0  0
   38.3085   36.1194   19.2700 H   0  0  0  0  0  0
   36.9113   35.6820   15.2018 H   0  0  0  0  0  0
  1 12  1  0  0  0
  1 19  1  0  0  0
  1  2  1  0  0  0
  2  3  2  0  0  0
  2  4  1  0  0  0
  4  5  2  0  0  0
  4 23  1  0  0  0
  5  6  1  0  0  0
  5 32  1  0  0  0
  6  7  1  0  0  0
  6 12  2  0  0  0
  7  8  2  0  0  0
  7 33  1  0  0  0
  8  9  1  0  0  0
  9 10  1  0  0  0
  9 11  2  0  0  0
 10 13  1  0  0  0
 10 34  1  0  0  0
 11 12  1  0  0  0
 13 18  1  0  0  0
 13 14  1  0  0  0
 13 35  1  0  0  0
 14 15  1  0  0  0
 14 36  1  0  0  0
 14 37  1  0  0  0
 15 16  1  0  0  0
 15 38  1  0  0  0
 15 39  1  0  0  0
 16 17  1  0  0  0
 17 18  1  0  0  0
 17 40  1  0  0  0
 17 41  1  0  0  0
 18 42  1  0  0  0
 18 43  1  0  0  0
 19 20  1  0  0  0
 19 44  1  0  0  0
 19 45  1  0  0  0
 20 21  1  0  0  0
 20 46  1  0  0  0
 20 47  1  0  0  0
 21 22  1  0  0  0
 21 48  1  0  0  0
 21 49  1  0  0  0
 22 50  1  0  0  0
 23 24  1  0  0  0
 24 25  2  0  0  0
 24 30  1  0  0  0
 25 26  1  0  0  0
 25 51  1  0  0  0
 26 27  2  0  0  0
 26 52  1  0  0  0
 27 28  1  0  0  0
 27 29  1  0  0  0
 29 30  2  0  0  0
 29 53  1  0  0  0
 30 31  1  0  0  0
M  END
> <s_m_entry_id>
1474

> <MODEL>
1

> <REMARK>
 VINA RESULT:    -7.925      0.000      0.000
 INTER + INTRA:         -11.909
 INTER:                 -10.936
 INTRA:                  -0.973
 UNBOUND:                -0.973
  Name = /scratch/kmzp800/tmp45dyczxo/tmpdi2few7g.pdb
  7 active torsions:
  status: ('A' for Active; 'I' for Inactive)
    1  A    between atoms: O1_1  and  C1_2
    2  A    between atoms: C1_2  and  C2_3
    3  A    between atoms: C2_3  and  C3_4
    4  A    between atoms: C3_4  and  N1_5
    5  A    between atoms: C5_8  and  O3_9
    6  A    between atoms: O3_9  and  C6_10
    7  A    between atoms: N3_23  and  C16_24
                            x       y       z     vdW  Elec       q    Type
                         _______ _______ _______ _____ _____    ______ ____

> <TORSDO>
F 7

> <grid_id>
p38-prepared

> <grid_path>
/projects/mai/users/kmzp800_harry/pmx_colab/docking_jobs/p38/vina_docking/input_files/p38_vina.pdbqt

> <grid_filename>
p38_vina.pdbqt

> <docking_score>
-7.925

> <compound_name>
lig_p38a_2n

> <index_string>
19:0:0

> <s_m_Source_Path>
/projects/mai/users/kmzp800_harry/pmx_colab/docking_jobs/p38/gmx_prep

> <s_m_Source_File>
prepared_vina_naive_confs.sdf

> <i_m_Source_File_Index>
20

> <s_m_entry_id>
1373

> <s_m_Source_Path>
/projects/mai/users/kmzp800_harry/pmx_colab/docking_jobs/p38

> <s_m_Source_File>
p38_confs_vina_naive.sdf

> <i_m_Source_File_Index>
20

$$$$
lig_p38a_2ff
                    3D
 Schrodinger Suite 2021-4.
 49 52  0  0  1  0            999 V2000
   33.0830   39.5790   25.2370 N   0  0  0  0  0  0
   33.1600   38.9850   23.9400 C   0  0  0  0  0  0
   32.9860   39.7590   22.8360 N   0  0  0  0  0  0
   33.0550   39.2280   21.5880 C   0  0  0  0  0  0
   33.3070   37.8690   21.4290 C   0  0  0  0  0  0
   33.3780   37.2930   20.1660 C   0  0  0  0  0  0
   33.6210   35.9270   20.0380 C   0  0  0  0  0  0
   33.8290   35.1540   21.2010 C   0  0  0  0  0  0
   34.1140   33.9290   21.0970 O   0  0  0  0  0  0
   33.7470   35.7350   22.4400 N   0  0  0  0  0  0
   33.9500   34.9180   23.6340 C   0  0  0  0  0  0
   33.4890   37.0720   22.5720 C   0  0  0  0  0  0
   33.4100   37.6540   23.8020 N   0  0  0  0  0  0
   34.0780   39.6670   29.2370 C   0  0  2  0  0  0
   34.9240   39.9320   27.9850 C   0  0  0  0  0  0
   34.6940   38.8550   26.9270 C   0  0  0  0  0  0
   33.2300   38.8140   26.4670 C   0  0  1  0  0  0
   32.2410   39.3290   27.5260 C   0  0  0  0  0  0
   32.7260   39.0030   28.9360 C   0  0  0  0  0  0
   33.8720   40.8650   29.9180 O   0  0  0  0  0  0
   33.6910   35.3820   18.7480 O   0  0  0  0  0  0
   34.7880   35.4910   17.8810 C   0  0  0  0  0  0
   36.0430   35.7720   18.4320 C   0  0  0  0  0  0
   37.1660   35.9020   17.6110 C   0  0  0  0  0  0
   37.0400   35.7590   16.2270 C   0  0  0  0  0  0
   38.1280   35.8840   15.4310 F   0  0  0  0  0  0
   35.7870   35.5020   15.6640 C   0  0  0  0  0  0
   34.6610   35.3710   16.4810 C   0  0  0  0  0  0
   33.4520   35.1690   15.9030 F   0  0  0  0  0  0
   32.9161   40.5931   25.3049 H   0  0  0  0  0  0
   32.9122   39.8699   20.7062 H   0  0  0  0  0  0
   33.2425   37.9147   19.2687 H   0  0  0  0  0  0
   33.7966   35.5355   24.5313 H   0  0  0  0  0  0
   33.2315   34.0851   23.6349 H   0  0  0  0  0  0
   34.9748   34.5182   23.6349 H   0  0  0  0  0  0
   34.6429   38.9555   29.8573 H   0  0  0  0  0  0
   34.6488   40.9113   27.5663 H   0  0  0  0  0  0
   35.9858   39.9183   28.2719 H   0  0  0  0  0  0
   35.3348   39.0662   26.0582 H   0  0  0  0  0  0
   34.9411   37.8796   27.3714 H   0  0  0  0  0  0
   32.9801   37.7565   26.2959 H   0  0  0  0  0  0
   32.1410   40.4197   27.4238 H   0  0  0  0  0  0
   31.2710   38.8350   27.3674 H   0  0  0  0  0  0
   32.8344   37.9127   29.0329 H   0  0  0  0  0  0
   31.9860   39.3896   29.6522 H   0  0  0  0  0  0
   33.9005   40.6991   30.8936 H   0  0  0  0  0  0
   36.1464   35.8916   19.5206 H   0  0  0  0  0  0
   38.1495   36.1170   18.0544 H   0  0  0  0  0  0
   35.6867   35.4024   14.5731 H   0  0  0  0  0  0
  1  2  1  0  0  0
  1 17  1  0  0  0
  1 30  1  0  0  0
  2  3  2  0  0  0
  2 13  1  0  0  0
  3  4  1  0  0  0
  4  5  2  0  0  0
  4 31  1  0  0  0
  5 12  1  0  0  0
  5  6  1  0  0  0
  6  7  2  0  0  0
  6 32  1  0  0  0
  7  8  1  0  0  0
  7 21  1  0  0  0
  8 10  1  0  0  0
  8  9  2  0  0  0
 10 12  1  0  0  0
 10 11  1  0  0  0
 11 33  1  0  0  0
 11 34  1  0  0  0
 11 35  1  0  0  0
 12 13  2  0  0  0
 14 20  1  0  0  0
 14 15  1  0  0  0
 14 19  1  0  0  0
 14 36  1  0  0  0
 15 16  1  0  0  0
 15 37  1  0  0  0
 15 38  1  0  0  0
 16 17  1  0  0  0
 16 39  1  0  0  0
 16 40  1  0  0  0
 17 18  1  0  0  0
 17 41  1  0  0  0
 18 19  1  0  0  0
 18 42  1  0  0  0
 18 43  1  0  0  0
 19 44  1  0  0  0
 19 45  1  0  0  0
 20 46  1  0  0  0
 21 22  1  0  0  0
 22 23  2  0  0  0
 22 28  1  0  0  0
 23 24  1  0  0  0
 23 47  1  0  0  0
 24 25  2  0  0  0
 24 48  1  0  0  0
 25 26  1  0  0  0
 25 27  1  0  0  0
 27 28  2  0  0  0
 27 49  1  0  0  0
 28 29  1  0  0  0
M  END
> <s_m_entry_id>
1475

> <MODEL>
1

> <REMARK>
 VINA RESULT:    -8.523      0.000      0.000
 INTER + INTRA:         -10.898
 INTER:                 -10.266
 INTRA:                  -0.631
 UNBOUND:                -0.631
  Name = /scratch/kmzp800/tmpo7p7eh1l/tmpcimc2nvc.pdb
  5 active torsions:
  status: ('A' for Active; 'I' for Inactive)
    1  A    between atoms: O1_1  and  C1_2
    2  A    between atoms: C4_5  and  N1_6
    3  A    between atoms: C9_12  and  O2_13
    4  A    between atoms: O2_13  and  C10_14
    5  A    between atoms: N3_24  and  C17_25
                            x       y       z     vdW  Elec       q    Type
                         _______ _______ _______ _____ _____    ______ ____

> <TORSDO>
F 4

> <grid_id>
p38-prepared

> <grid_path>
/projects/mai/users/kmzp800_harry/pmx_colab/docking_jobs/p38/vina_docking/input_files/p38_vina.pdbqt

> <grid_filename>
p38_vina.pdbqt

> <docking_score>
-8.523

> <compound_name>
lig_p38a_2ff

> <index_string>
20:0:0

> <s_m_Source_Path>
/projects/mai/users/kmzp800_harry/pmx_colab/docking_jobs/p38/gmx_prep

> <s_m_Source_File>
prepared_vina_naive_confs.sdf

> <i_m_Source_File_Index>
21

> <s_m_entry_id>
1374

> <s_m_Source_Path>
/projects/mai/users/kmzp800_harry/pmx_colab/docking_jobs/p38

> <s_m_Source_File>
p38_confs_vina_naive.sdf

> <i_m_Source_File_Index>
21

$$$$
lig_p38a_2x
                    3D
 Schrodinger Suite 2021-4.
 43 46  0  0  1  0            999 V2000
   33.3790   35.6180   19.9520 C   0  0  0  0  0  0
   33.3500   36.9030   20.5060 C   0  0  0  0  0  0
   33.0930   37.0660   21.8610 C   0  0  0  0  0  0
   33.0650   38.3300   22.4430 C   0  0  0  0  0  0
   32.8110   38.4540   23.7720 N   0  0  0  0  0  0
   32.5830   37.3590   24.5480 C   0  0  0  0  0  0
   32.3140   37.5020   25.9450 N   0  0  0  0  0  0
   32.6040   36.1180   23.9950 N   0  0  0  0  0  0
   32.8540   35.9400   22.6680 C   0  0  0  0  0  0
   32.8730   34.6870   22.1150 N   0  0  0  0  0  0
   32.6190   33.5220   22.9580 C   0  0  0  0  0  0
   33.1250   34.5130   20.7800 C   0  0  0  0  0  0
   33.1340   33.3540   20.2790 O   0  0  0  0  0  0
   32.3000   38.7940   26.6180 C   0  0  1  0  0  0
   31.4840   38.6930   27.8850 C   0  0  0  0  0  0
   32.1760   39.3470   28.9140 O   0  0  0  0  0  0
   33.5330   39.1810   28.6060 C   0  0  0  0  0  0
   33.6780   39.1410   27.1030 C   0  0  0  0  0  0
   33.6130   35.4170   18.5820 O   0  0  0  0  0  0
   37.2460   35.9280   18.1590 C   0  0  0  0  0  0
   35.9840   35.7940   18.7440 C   0  0  0  0  0  0
   34.8590   35.5340   17.9530 C   0  0  0  0  0  0
   35.0050   35.4440   16.5530 C   0  0  0  0  0  0
   33.9270   35.2810   15.7480 F   0  0  0  0  0  0
   36.2690   35.5810   15.9730 C   0  0  0  0  0  0
   37.3890   35.8130   16.7750 C   0  0  0  0  0  0
   38.6130   35.9420   16.2070 F   0  0  0  0  0  0
   33.5304   37.7819   19.8695 H   0  0  0  0  0  0
   33.2477   39.2247   21.8297 H   0  0  0  0  0  0
   32.1219   36.6553   26.4992 H   0  0  0  0  0  0
   32.6828   33.8144   24.0165 H   0  0  0  0  0  0
   31.6139   33.1283   22.7463 H   0  0  0  0  0  0
   33.3690   32.7457   22.7463 H   0  0  0  0  0  0
   31.9050   39.5314   25.9038 H   0  0  0  0  0  0
   30.5047   39.1708   27.7345 H   0  0  0  0  0  0
   31.3273   37.6367   28.1488 H   0  0  0  0  0  0
   34.1123   40.0229   29.0131 H   0  0  0  0  0  0
   33.9098   38.2466   29.0476 H   0  0  0  0  0  0
   34.4048   38.3729   26.8000 H   0  0  0  0  0  0
   34.0487   40.0892   26.6865 H   0  0  0  0  0  0
   38.1264   36.1240   18.7887 H   0  0  0  0  0  0
   35.8740   35.8936   19.8339 H   0  0  0  0  0  0
   36.3824   35.5059   14.8814 H   0  0  0  0  0  0
  1  2  2  0  0  0
  1 12  1  0  0  0
  1 19  1  0  0  0
  2  3  1  0  0  0
  2 28  1  0  0  0
  3  4  2  0  0  0
  3  9  1  0  0  0
  4  5  1  0  0  0
  4 29  1  0  0  0
  5  6  2  0  0  0
  6  7  1  0  0  0
  6  8  1  0  0  0
  7 14  1  0  0  0
  7 30  1  0  0  0
  8  9  2  0  0  0
  9 10  1  0  0  0
 10 11  1  0  0  0
 10 12  1  0  0  0
 11 31  1  0  0  0
 11 32  1  0  0  0
 11 33  1  0  0  0
 12 13  2  0  0  0
 14 18  1  0  0  0
 14 15  1  0  0  0
 14 34  1  0  0  0
 15 16  1  0  0  0
 15 35  1  0  0  0
 15 36  1  0  0  0
 16 17  1  0  0  0
 17 18  1  0  0  0
 17 37  1  0  0  0
 17 38  1  0  0  0
 18 39  1  0  0  0
 18 40  1  0  0  0
 19 22  1  0  0  0
 20 21  2  0  0  0
 20 26  1  0  0  0
 20 41  1  0  0  0
 21 22  1  0  0  0
 21 42  1  0  0  0
 22 23  2  0  0  0
 23 24  1  0  0  0
 23 25  1  0  0  0
 25 26  2  0  0  0
 25 43  1  0  0  0
 26 27  1  0  0  0
M  END
> <s_m_entry_id>
1476

> <MODEL>
1

> <REMARK>
 VINA RESULT:    -8.136      0.000      0.000
 INTER + INTRA:         -10.008
 INTER:                  -9.562
 INTRA:                  -0.445
 UNBOUND:                -0.445
  Name = /scratch/kmzp800/tmp5g73gldd/tmpf7kvkzme.pdb
  4 active torsions:
  status: ('A' for Active; 'I' for Inactive)
    1  A    between atoms: C3_3  and  O1_4
    2  A    between atoms: O1_4  and  C4_5
    3  A    between atoms: N2_11  and  C9_12
    4  A    between atoms: N4_19  and  C14_20
                            x       y       z     vdW  Elec       q    Type
                         _______ _______ _______ _____ _____    ______ ____

> <TORSDO>
F 3

> <grid_id>
p38-prepared

> <grid_path>
/projects/mai/users/kmzp800_harry/pmx_colab/docking_jobs/p38/vina_docking/input_files/p38_vina.pdbqt

> <grid_filename>
p38_vina.pdbqt

> <docking_score>
-8.136

> <compound_name>
lig_p38a_2x

> <index_string>
21:0:0

> <s_m_Source_Path>
/projects/mai/users/kmzp800_harry/pmx_colab/docking_jobs/p38/gmx_prep

> <s_m_Source_File>
prepared_vina_naive_confs.sdf

> <i_m_Source_File_Index>
22

> <s_m_entry_id>
1375

> <s_m_Source_Path>
/projects/mai/users/kmzp800_harry/pmx_colab/docking_jobs/p38

> <s_m_Source_File>
p38_confs_vina_naive.sdf

> <i_m_Source_File_Index>
22

$$$$
lig_p38a_3flw
                    3D
 Schrodinger Suite 2021-4.
 49 51  0  0  1  0            999 V2000
   32.8960   39.4080   25.5680 N   0  0  0  0  0  0
   33.0520   38.8640   24.2560 C   0  0  0  0  0  0
   32.8760   39.6660   23.1720 N   0  0  0  0  0  0
   33.0190   39.1820   21.9110 C   0  0  0  0  0  0
   33.3520   37.8450   21.7180 C   0  0  0  0  0  0
   33.5000   37.3170   20.4410 C   0  0  0  0  0  0
   33.8230   35.9710   20.2790 C   0  0  0  0  0  0
   34.0360   35.1720   21.4220 C   0  0  0  0  0  0
   34.3980   33.9710   21.2880 O   0  0  0  0  0  0
   33.8760   35.7050   22.6760 N   0  0  0  0  0  0
   34.0840   34.8600   23.8480 C   0  0  0  0  0  0
   33.5380   37.0210   22.8410 C   0  0  0  0  0  0
   33.3840   37.5550   24.0850 N   0  0  0  0  0  0
   33.0000   38.6000   26.7730 C   0  0  0  0  0  0
   31.7280   38.7400   27.6040 C   0  0  0  0  0  0
   30.7370   37.6290   27.2980 C   0  0  0  0  0  0
   31.2380   36.8110   26.2850 O   0  0  0  0  0  0
   34.1930   39.0730   27.5840 C   0  0  0  0  0  0
   35.4710   38.4500   27.0550 C   0  0  0  0  0  0
   35.1950   37.1800   26.5500 O   0  0  0  0  0  0
   33.9690   35.4710   18.9770 O   0  0  0  0  0  0
   35.1200   35.6170   18.1880 C   0  0  0  0  0  0
   36.3800   35.8580   18.7610 C   0  0  0  0  0  0
   37.5130   35.9770   17.9520 C   0  0  0  0  0  0
   37.3970   35.8520   16.5660 C   0  0  0  0  0  0
   38.4950   35.9680   15.7810 F   0  0  0  0  0  0
   36.1500   35.6010   15.9900 C   0  0  0  0  0  0
   35.0140   35.4800   16.7960 C   0  0  0  0  0  0
   33.8100   35.2340   16.2240 F   0  0  0  0  0  0
   32.7017   40.4149   25.6646 H   0  0  0  0  0  0
   32.8721   39.8447   21.0454 H   0  0  0  0  0  0
   33.3624   37.9605   19.5595 H   0  0  0  0  0  0
   33.9372   35.4563   24.7606 H   0  0  0  0  0  0
   33.3636   34.0288   23.8333 H   0  0  0  0  0  0
   35.1079   34.4582   23.8333 H   0  0  0  0  0  0
   33.1315   37.5433   26.4970 H   0  0  0  0  0  0
   31.9920   38.6994   28.6711 H   0  0  0  0  0  0
   31.2563   39.7016   27.3533 H   0  0  0  0  0  0
   30.5721   37.0277   28.2042 H   0  0  0  0  0  0
   29.7862   38.0728   26.9679 H   0  0  0  0  0  0
   31.7105   36.0396   26.6872 H   0  0  0  0  0  0
   34.2676   40.1683   27.5144 H   0  0  0  0  0  0
   34.0551   38.7700   28.6324 H   0  0  0  0  0  0
   35.8824   39.0816   26.2539 H   0  0  0  0  0  0
   36.2041   38.3686   27.8710 H   0  0  0  0  0  0
   35.0579   36.5491   27.3005 H   0  0  0  0  0  0
   36.4751   35.9535   19.8527 H   0  0  0  0  0  0
   38.4960   36.1691   18.4067 H   0  0  0  0  0  0
   36.0611   35.4981   14.8984 H   0  0  0  0  0  0
  1 14  1  0  0  0
  1  2  1  0  0  0
  1 30  1  0  0  0
  2  3  2  0  0  0
  2 13  1  0  0  0
  3  4  1  0  0  0
  4  5  2  0  0  0
  4 31  1  0  0  0
  5 12  1  0  0  0
  5  6  1  0  0  0
  6  7  2  0  0  0
  6 32  1  0  0  0
  7  8  1  0  0  0
  7 21  1  0  0  0
  8 10  1  0  0  0
  8  9  2  0  0  0
 10 12  1  0  0  0
 10 11  1  0  0  0
 11 33  1  0  0  0
 11 34  1  0  0  0
 11 35  1  0  0  0
 12 13  2  0  0  0
 14 18  1  0  0  0
 14 15  1  0  0  0
 14 36  1  0  0  0
 15 16  1  0  0  0
 15 37  1  0  0  0
 15 38  1  0  0  0
 16 17  1  0  0  0
 16 39  1  0  0  0
 16 40  1  0  0  0
 17 41  1  0  0  0
 18 19  1  0  0  0
 18 42  1  0  0  0
 18 43  1  0  0  0
 19 20  1  0  0  0
 19 44  1  0  0  0
 19 45  1  0  0  0
 20 46  1  0  0  0
 21 22  1  0  0  0
 22 23  2  0  0  0
 22 28  1  0  0  0
 23 24  1  0  0  0
 23 47  1  0  0  0
 24 25  2  0  0  0
 24 48  1  0  0  0
 25 26  1  0  0  0
 25 27  1  0  0  0
 27 28  2  0  0  0
 27 49  1  0  0  0
 28 29  1  0  0  0
M  END
> <s_m_entry_id>
1477

> <MODEL>
1

> <REMARK>
 VINA RESULT:    -7.170      0.000      0.000
 INTER + INTRA:         -12.308
 INTER:                 -10.523
 INTRA:                  -1.785
 UNBOUND:                -1.785
  Name = /scratch/kmzp800/tmp61vtqhvc/tmpoyy2shi6.pdb
  10 active torsions:
  status: ('A' for Active; 'I' for Inactive)
    1  A    between atoms: O1_1  and  C1_2
    2  A    between atoms: C1_2  and  C2_3
    3  A    between atoms: C2_3  and  C3_4
    4  A    between atoms: C3_4  and  N1_5
    5  A    between atoms: C3_4  and  C18_27
    6  A    between atoms: C8_11  and  O2_12
    7  A    between atoms: O2_12  and  C9_13
    8  A    between atoms: N3_23  and  C16_24
    9  A    between atoms: C18_27  and  C19_28
   10  A    between atoms: C19_28  and  O4_29
                            x       y       z     vdW  Elec       q    Type
                         _______ _______ _______ _____ _____    ______ ____

> <TORSDO>
F 9

> <grid_id>
p38-prepared

> <grid_path>
/projects/mai/users/kmzp800_harry/pmx_colab/docking_jobs/p38/vina_docking/input_files/p38_vina.pdbqt

> <grid_filename>
p38_vina.pdbqt

> <docking_score>
-7.17

> <compound_name>
lig_p38a_3flw

> <index_string>
22:0:0

> <s_m_Source_Path>
/projects/mai/users/kmzp800_harry/pmx_colab/docking_jobs/p38/gmx_prep

> <s_m_Source_File>
prepared_vina_naive_confs.sdf

> <i_m_Source_File_Index>
23

> <s_m_entry_id>
1376

> <s_m_Source_Path>
/projects/mai/users/kmzp800_harry/pmx_colab/docking_jobs/p38

> <s_m_Source_File>
p38_confs_vina_naive.sdf

> <i_m_Source_File_Index>
23

$$$$
lig_p38a_3flz
                    3D
 Schrodinger Suite 2021-4.
 46 49  0  0  1  0            999 V2000
   34.5930   36.2420   19.9980 C   0  0  0  0  0  0
   34.5090   37.6190   20.1990 C   0  0  0  0  0  0
   34.3980   38.1240   21.4890 C   0  0  0  0  0  0
   34.3000   39.4930   21.7220 C   0  0  0  0  0  0
   34.1890   39.9540   22.9950 N   0  0  0  0  0  0
   34.1700   39.1000   24.0520 C   0  0  0  0  0  0
   34.0500   39.6240   25.3800 N   0  0  0  0  0  0
   34.2660   37.7580   23.8420 N   0  0  0  0  0  0
   34.3800   37.2460   22.5850 C   0  0  0  0  0  0
   34.4840   35.8960   22.3830 N   0  0  0  0  0  0
   34.4820   34.9910   23.5290 C   0  0  0  0  0  0
   34.6040   35.3830   21.1170 C   0  0  0  0  0  0
   34.7520   34.1400   20.9500 O   0  0  0  0  0  0
   34.0200   38.8060   26.5880 C   0  0  0  0  0  0
   35.4170   38.6950   27.2150 C   0  0  0  0  0  0
   35.3490   38.2490   28.6840 C   0  0  0  0  0  0
   34.0910   37.7010   28.9920 O   0  0  0  0  0  0
   33.1940   38.7820   28.9920 C   0  0  0  0  0  0
   32.9500   39.3040   27.5690 C   0  0  0  0  0  0
   34.7080   35.7660   18.6840 O   0  0  0  0  0  0
   38.1760   35.8850   16.3070 C   0  0  0  0  0  0
   36.9140   35.7650   15.7180 C   0  0  0  0  0  0
   35.7680   35.7330   16.5180 C   0  0  0  0  0  0
   35.8760   35.8250   17.9100 C   0  0  0  0  0  0
   37.1480   35.9350   18.4960 C   0  0  0  0  0  0
   38.2940   35.9680   17.6960 C   0  0  0  0  0  0
   34.5305   38.3041   19.3387 H   0  0  0  0  0  0
   34.3124   40.1988   20.8784 H   0  0  0  0  0  0
   33.9803   40.6458   25.4893 H   0  0  0  0  0  0
   34.4833   35.5777   24.4595 H   0  0  0  0  0  0
   33.5825   34.3588   23.4954 H   0  0  0  0  0  0
   35.3787   34.3548   23.4954 H   0  0  0  0  0  0
   33.7263   37.7827   26.3113 H   0  0  0  0  0  0
   36.0051   37.9596   26.6464 H   0  0  0  0  0  0
   35.8873   39.6888   27.1807 H   0  0  0  0  0  0
   36.1247   37.4903   28.8648 H   0  0  0  0  0  0
   35.5109   39.1296   29.3230 H   0  0  0  0  0  0
   32.2365   38.4532   29.4222 H   0  0  0  0  0  0
   33.6304   39.5954   29.5903 H   0  0  0  0  0  0
   32.9663   40.4038   27.5855 H   0  0  0  0  0  0
   31.9735   38.9281   27.2297 H   0  0  0  0  0  0
   39.0766   35.9141   15.6761 H   0  0  0  0  0  0
   36.8225   35.6957   14.6240 H   0  0  0  0  0  0
   34.7769   35.6350   16.0510 H   0  0  0  0  0  0
   37.2428   35.9955   19.5902 H   0  0  0  0  0  0
   39.2872   36.0592   18.1600 H   0  0  0  0  0  0
  1  2  2  0  0  0
  1 12  1  0  0  0
  1 20  1  0  0  0
  2  3  1  0  0  0
  2 27  1  0  0  0
  3  4  2  0  0  0
  3  9  1  0  0  0
  4  5  1  0  0  0
  4 28  1  0  0  0
  5  6  2  0  0  0
  6  7  1  0  0  0
  6  8  1  0  0  0
  7 14  1  0  0  0
  7 29  1  0  0  0
  8  9  2  0  0  0
  9 10  1  0  0  0
 10 11  1  0  0  0
 10 12  1  0  0  0
 11 30  1  0  0  0
 11 31  1  0  0  0
 11 32  1  0  0  0
 12 13  2  0  0  0
 14 15  1  0  0  0
 14 19  1  0  0  0
 14 33  1  0  0  0
 15 16  1  0  0  0
 15 34  1  0  0  0
 15 35  1  0  0  0
 16 17  1  0  0  0
 16 36  1  0  0  0
 16 37  1  0  0  0
 17 18  1  0  0  0
 18 19  1  0  0  0
 18 38  1  0  0  0
 18 39  1  0  0  0
 19 40  1  0  0  0
 19 41  1  0  0  0
 20 24  1  0  0  0
 21 26  2  0  0  0
 21 22  1  0  0  0
 21 42  1  0  0  0
 22 23  2  0  0  0
 22 43  1  0  0  0
 23 24  1  0  0  0
 23 44  1  0  0  0
 24 25  2  0  0  0
 25 26  1  0  0  0
 25 45  1  0  0  0
 26 46  1  0  0  0
M  END
> <s_m_entry_id>
1478

> <MODEL>
1

> <REMARK>
 VINA RESULT:    -8.666      0.000      0.000
 INTER + INTRA:         -10.823
 INTER:                 -10.186
 INTRA:                  -0.637
 UNBOUND:                -0.637
  Name = /scratch/kmzp800/tmprrg34qf3/tmpty09h8_g.pdb
  4 active torsions:
  status: ('A' for Active; 'I' for Inactive)
    1  A    between atoms: C4_4  and  O1_5
    2  A    between atoms: O1_5  and  C5_6
    3  A    between atoms: N2_12  and  C10_13
    4  A    between atoms: N4_21  and  C16_22
                            x       y       z     vdW  Elec       q    Type
                         _______ _______ _______ _____ _____    ______ ____

> <TORSDO>
F 3

> <grid_id>
p38-prepared

> <grid_path>
/projects/mai/users/kmzp800_harry/pmx_colab/docking_jobs/p38/vina_docking/input_files/p38_vina.pdbqt

> <grid_filename>
p38_vina.pdbqt

> <docking_score>
-8.666

> <compound_name>
lig_p38a_3flz

> <index_string>
23:0:0

> <s_m_Source_Path>
/projects/mai/users/kmzp800_harry/pmx_colab/docking_jobs/p38/gmx_prep

> <s_m_Source_File>
prepared_vina_naive_confs.sdf

> <i_m_Source_File_Index>
24

> <s_m_entry_id>
1377

> <s_m_Source_Path>
/projects/mai/users/kmzp800_harry/pmx_colab/docking_jobs/p38

> <s_m_Source_File>
p38_confs_vina_naive.sdf

> <i_m_Source_File_Index>
24

$$$$
lig_p38a_2y
                    3D
 Schrodinger Suite 2021-4.
 45 47  0  0  1  0            999 V2000
   32.0090   37.8180   25.8000 N   0  0  0  0  0  0
   32.3610   37.6210   24.4290 C   0  0  0  0  0  0
   32.6910   38.6810   23.6400 N   0  0  0  0  0  0
   33.0300   38.5040   22.3360 C   0  0  0  0  0  0
   33.0430   37.2220   21.7940 C   0  0  0  0  0  0
   33.3810   37.0080   20.4630 C   0  0  0  0  0  0
   33.3750   35.7140   19.9440 C   0  0  0  0  0  0
   33.0630   34.6340   20.7980 C   0  0  0  0  0  0
   33.1190   33.4520   20.3570 O   0  0  0  0  0  0
   32.7230   34.8620   22.1060 N   0  0  0  0  0  0
   32.3880   33.7330   22.9690 C   0  0  0  0  0  0
   32.7060   36.1330   22.6160 C   0  0  0  0  0  0
   32.3740   36.3630   23.9170 N   0  0  0  0  0  0
   31.9080   39.1420   26.4070 C   0  0  0  0  0  0
   32.7460   39.2530   27.6800 C   0  0  0  0  0  0
   34.0850   38.5600   27.4940 C   0  0  0  0  0  0
   32.0220   38.6370   28.8620 C   0  0  0  0  0  0
   32.9750   40.6010   27.9480 O   0  0  0  0  0  0
   33.7270   35.5370   18.5980 O   0  0  0  0  0  0
   35.0290   35.6170   18.0840 C   0  0  0  0  0  0
   36.0840   35.8310   18.9780 C   0  0  0  0  0  0
   37.3980   35.9280   18.5140 C   0  0  0  0  0  0
   37.6660   35.8200   17.1480 C   0  0  0  0  0  0
   38.9400   35.9130   16.6980 F   0  0  0  0  0  0
   36.6190   35.6300   16.2430 C   0  0  0  0  0  0
   35.3020   35.5300   16.7020 C   0  0  0  0  0  0
   34.3020   35.3950   15.7970 F   0  0  0  0  0  0
   31.8186   36.9914   26.3843 H   0  0  0  0  0  0
   33.2931   39.3703   21.7113 H   0  0  0  0  0  0
   33.6528   37.8582   19.8201 H   0  0  0  0  0  0
   32.4783   34.0372   24.0223 H   0  0  0  0  0  0
   31.3556   33.4111   22.7675 H   0  0  0  0  0  0
   33.0777   32.9001   22.7675 H   0  0  0  0  0  0
   32.2598   39.8922   25.6836 H   0  0  0  0  0  0
   30.8554   39.3129   26.6769 H   0  0  0  0  0  0
   34.5210   38.3344   28.4784 H   0  0  0  0  0  0
   33.9390   37.6243   26.9345 H   0  0  0  0  0  0
   34.7646   39.2196   26.9345 H   0  0  0  0  0  0
   32.4625   39.0118   29.7977 H   0  0  0  0  0  0
   30.9572   38.9103   28.8228 H   0  0  0  0  0  0
   32.1212   37.5422   28.8228 H   0  0  0  0  0  0
   32.9992   40.7433   28.9274 H   0  0  0  0  0  0
   35.8770   35.9235   20.0544 H   0  0  0  0  0  0
   38.2217   36.0895   19.2249 H   0  0  0  0  0  0
   36.8312   35.5588   15.1660 H   0  0  0  0  0  0
  1 14  1  0  0  0
  1  2  1  0  0  0
  1 28  1  0  0  0
  2  3  2  0  0  0
  2 13  1  0  0  0
  3  4  1  0  0  0
  4  5  2  0  0  0
  4 29  1  0  0  0
  5 12  1  0  0  0
  5  6  1  0  0  0
  6  7  2  0  0  0
  6 30  1  0  0  0
  7  8  1  0  0  0
  7 19  1  0  0  0
  8 10  1  0  0  0
  8  9  2  0  0  0
 10 12  1  0  0  0
 10 11  1  0  0  0
 11 31  1  0  0  0
 11 32  1  0  0  0
 11 33  1  0  0  0
 12 13  2  0  0  0
 14 15  1  0  0  0
 14 34  1  0  0  0
 14 35  1  0  0  0
 15 18  1  0  0  0
 15 17  1  0  0  0
 15 16  1  0  0  0
 16 36  1  0  0  0
 16 37  1  0  0  0
 16 38  1  0  0  0
 17 39  1  0  0  0
 17 40  1  0  0  0
 17 41  1  0  0  0
 18 42  1  0  0  0
 19 20  1  0  0  0
 20 21  2  0  0  0
 20 26  1  0  0  0
 21 22  1  0  0  0
 21 43  1  0  0  0
 22 23  2  0  0  0
 22 44  1  0  0  0
 23 24  1  0  0  0
 23 25  1  0  0  0
 25 26  2  0  0  0
 25 45  1  0  0  0
 26 27  1  0  0  0
M  END
> <s_m_entry_id>
1479

> <MODEL>
1

> <REMARK>
 VINA RESULT:    -8.114      0.000      0.000
 INTER + INTRA:         -10.699
 INTER:                 -10.249
 INTRA:                  -0.450
 UNBOUND:                -0.450
  Name = /scratch/kmzp800/tmpvjn9zz_4/tmpzngyckm7.pdb
  8 active torsions:
  status: ('A' for Active; 'I' for Inactive)
    1  A    between atoms: O1_1  and  C1_2
    2  A    between atoms: C1_2  and  C2_3
    3  A    between atoms: C1_2  and  C3_4
    4  A    between atoms: C1_2  and  C4_5
    5  A    between atoms: C4_5  and  N1_6
    6  A    between atoms: C9_12  and  O2_13
    7  A    between atoms: O2_13  and  C10_14
    8  A    between atoms: N3_24  and  C17_25
                            x       y       z     vdW  Elec       q    Type
                         _______ _______ _______ _____ _____    ______ ____

> <TORSDO>
F 5

> <grid_id>
p38-prepared

> <grid_path>
/projects/mai/users/kmzp800_harry/pmx_colab/docking_jobs/p38/vina_docking/input_files/p38_vina.pdbqt

> <grid_filename>
p38_vina.pdbqt

> <docking_score>
-8.114

> <compound_name>
lig_p38a_2y

> <index_string>
24:0:0

> <s_m_Source_Path>
/projects/mai/users/kmzp800_harry/pmx_colab/docking_jobs/p38/gmx_prep

> <s_m_Source_File>
prepared_vina_naive_confs.sdf

> <i_m_Source_File_Index>
25

> <s_m_entry_id>
1378

> <s_m_Source_Path>
/projects/mai/users/kmzp800_harry/pmx_colab/docking_jobs/p38

> <s_m_Source_File>
p38_confs_vina_naive.sdf

> <i_m_Source_File_Index>
25

$$$$
lig_p38a_2v
                    3D
 Schrodinger Suite 2021-4.
 35 37  0  0  1  0            999 V2000
   33.6430   36.0650   20.2800 C   0  0  0  0  0  0
   33.8140   37.4390   20.4840 C   0  0  0  0  0  0
   33.4500   38.0140   21.6950 C   0  0  0  0  0  0
   33.6150   39.3760   21.9270 C   0  0  0  0  0  0
   33.2480   39.9060   23.1220 N   0  0  0  0  0  0
   32.7200   39.1260   24.1030 C   0  0  0  0  0  0
   32.3460   39.7190   25.3470 N   0  0  0  0  0  0
   31.7770   38.9400   26.4340 C   0  0  0  0  0  0
   32.5510   37.7910   23.8930 N   0  0  0  0  0  0
   32.9040   37.2120   22.7110 C   0  0  0  0  0  0
   32.7300   35.8700   22.5040 N   0  0  0  0  0  0
   32.1570   35.0440   23.5640 C   0  0  0  0  0  0
   33.0850   35.2920   21.3130 C   0  0  0  0  0  0
   32.9170   34.0540   21.1320 O   0  0  0  0  0  0
   33.9780   35.4380   19.0660 O   0  0  0  0  0  0
   37.5570   35.9960   18.1560 C   0  0  0  0  0  0
   36.4020   35.8550   18.9310 C   0  0  0  0  0  0
   35.1610   35.6050   18.3240 C   0  0  0  0  0  0
   35.0980   35.4840   16.9280 C   0  0  0  0  0  0
   33.9140   35.2300   16.3180 F   0  0  0  0  0  0
   36.2530   35.6250   16.1540 C   0  0  0  0  0  0
   37.4820   35.8830   16.7670 C   0  0  0  0  0  0
   38.5990   36.0200   16.0140 F   0  0  0  0  0  0
   34.2372   38.0645   19.6842 H   0  0  0  0  0  0
   34.0414   40.0213   21.1448 H   0  0  0  0  0  0
   32.4839   40.7313   25.4781 H   0  0  0  0  0  0
   32.0910   39.3698   27.3966 H   0  0  0  0  0  0
   30.6794   38.9600   26.3641 H   0  0  0  0  0  0
   32.1300   37.9005   26.3641 H   0  0  0  0  0  0
   32.4421   35.4550   24.5437 H   0  0  0  0  0  0
   31.0608   35.0395   23.4732 H   0  0  0  0  0  0
   32.5367   34.0156   23.4732 H   0  0  0  0  0  0
   38.5241   36.1958   18.6406 H   0  0  0  0  0  0
   36.4661   35.9407   20.0258 H   0  0  0  0  0  0
   36.1946   35.5327   15.0594 H   0  0  0  0  0  0
  1  2  2  0  0  0
  1 13  1  0  0  0
  1 15  1  0  0  0
  2  3  1  0  0  0
  2 24  1  0  0  0
  3  4  2  0  0  0
  3 10  1  0  0  0
  4  5  1  0  0  0
  4 25  1  0  0  0
  5  6  2  0  0  0
  6  7  1  0  0  0
  6  9  1  0  0  0
  7  8  1  0  0  0
  7 26  1  0  0  0
  8 27  1  0  0  0
  8 28  1  0  0  0
  8 29  1  0  0  0
  9 10  2  0  0  0
 10 11  1  0  0  0
 11 12  1  0  0  0
 11 13  1  0  0  0
 12 30  1  0  0  0
 12 31  1  0  0  0
 12 32  1  0  0  0
 13 14  2  0  0  0
 15 18  1  0  0  0
 16 17  2  0  0  0
 16 22  1  0  0  0
 16 33  1  0  0  0
 17 18  1  0  0  0
 17 34  1  0  0  0
 18 19  2  0  0  0
 19 20  1  0  0  0
 19 21  1  0  0  0
 21 22  2  0  0  0
 21 35  1  0  0  0
 22 23  1  0  0  0
M  END
> <s_m_entry_id>
1480

> <MODEL>
1

> <REMARK>
 VINA RESULT:    -8.261      0.000      0.000
 INTER + INTRA:          -9.560
 INTER:                  -9.227
 INTRA:                  -0.333
 UNBOUND:                -0.333
  Name = /scratch/kmzp800/tmpu7f49tii/tmpa78wjtz0.pdb
  4 active torsions:
  status: ('A' for Active; 'I' for Inactive)
    1  A    between atoms: C3_3  and  O1_4
    2  A    between atoms: O1_4  and  C4_5
    3  A    between atoms: N2_11  and  C9_12
    4  A    between atoms: N4_15  and  C11_16
                            x       y       z     vdW  Elec       q    Type
                         _______ _______ _______ _____ _____    ______ ____

> <TORSDO>
F 2

> <grid_id>
p38-prepared

> <grid_path>
/projects/mai/users/kmzp800_harry/pmx_colab/docking_jobs/p38/vina_docking/input_files/p38_vina.pdbqt

> <grid_filename>
p38_vina.pdbqt

> <docking_score>
-8.261

> <compound_name>
lig_p38a_2v

> <index_string>
25:0:0

> <s_m_Source_Path>
/projects/mai/users/kmzp800_harry/pmx_colab/docking_jobs/p38/gmx_prep

> <s_m_Source_File>
prepared_vina_naive_confs.sdf

> <i_m_Source_File_Index>
26

> <s_m_entry_id>
1379

> <s_m_Source_Path>
/projects/mai/users/kmzp800_harry/pmx_colab/docking_jobs/p38

> <s_m_Source_File>
p38_confs_vina_naive.sdf

> <i_m_Source_File_Index>
26

$$$$
lig_p38a_2u
                    3D
 Schrodinger Suite 2021-4.
 64 68  0  0  1  0            999 V2000
   34.2230   35.8880   20.9200 C   0  0  0  0  0  0
   35.1680   36.6760   21.5830 C   0  0  0  0  0  0
   35.0250   36.9410   22.9370 C   0  0  0  0  0  0
   35.9550   37.7200   23.6210 C   0  0  0  0  0  0
   35.7870   37.9620   24.9460 N   0  0  0  0  0  0
   34.7210   37.4550   25.6230 C   0  0  0  0  0  0
   34.5490   37.7160   27.0170 N   0  0  0  0  0  0
   33.8030   36.6960   24.9680 N   0  0  0  0  0  0
   33.9240   36.4200   23.6390 C   0  0  0  0  0  0
   32.9900   35.6520   22.9840 N   0  0  0  0  0  0
   33.1290   35.3860   21.6440 C   0  0  0  0  0  0
   32.2690   34.6840   21.0440 O   0  0  0  0  0  0
   35.4990   38.4920   27.7990 C   0  0  0  0  0  0
   35.4700   38.0410   29.2610 C   0  0  0  0  0  0
   36.3020   39.0140   30.0960 C   0  0  0  0  0  0
   35.7660   40.3110   29.9980 O   0  0  0  0  0  0
   36.0180   40.7570   28.6860 C   0  0  0  0  0  0
   35.1550   39.9750   27.6950 C   0  0  0  0  0  0
   31.8280   35.0860   23.6880 C   0  0  0  0  0  0
   32.1650   33.7590   24.3830 C   0  0  0  0  0  0
   32.1500   33.9140   25.9020 C   0  0  0  0  0  0
   30.8420   34.3710   26.3990 N   0  0  2  0  0  0
   30.1950   35.3990   25.5580 C   0  0  0  0  0  0
   31.1600   36.1110   24.6080 C   0  0  0  0  0  0
   31.0900   35.0540   27.9750 S   0  0  0  0  0  0
   30.2630   34.3090   28.9840 O   0  0  0  0  0  0
   30.6900   36.5050   27.9800 O   0  0  0  0  0  0
   32.8050   34.9190   28.4290 C   0  0  0  0  0  0
   34.3150   35.6060   19.5450 O   0  0  0  0  0  0
   37.8330   36.0990   18.3940 C   0  0  0  0  0  0
   36.7310   35.9850   19.2440 C   0  0  0  0  0  0
   35.4470   35.7450   18.7240 C   0  0  0  0  0  0
   35.2910   35.6070   17.3360 C   0  0  0  0  0  0
   34.0670   35.3640   16.8100 F   0  0  0  0  0  0
   36.3950   35.7220   16.4860 C   0  0  0  0  0  0
   37.6650   35.9690   17.0130 C   0  0  0  0  0  0
   38.7320   36.0800   16.1860 F   0  0  0  0  0  0
   36.0260   37.0864   21.0304 H   0  0  0  0  0  0
   36.8227   38.1377   23.0893 H   0  0  0  0  0  0
   33.7154   37.3380   27.4893 H   0  0  0  0  0  0
   36.5127   38.3297   27.4040 H   0  0  0  0  0  0
   34.4321   38.0359   29.6253 H   0  0  0  0  0  0
   35.8863   37.0264   29.3463 H   0  0  0  0  0  0
   36.2904   38.6934   31.1482 H   0  0  0  0  0  0
   37.3357   39.0207   29.7198 H   0  0  0  0  0  0
   35.7780   41.8280   28.6125 H   0  0  0  0  0  0
   37.0796   40.5963   28.4468 H   0  0  0  0  0  0
   35.3545   40.3291   26.6728 H   0  0  0  0  0  0
   34.0908   40.1269   27.9284 H   0  0  0  0  0  0
   31.0724   34.8354   22.9288 H   0  0  0  0  0  0
   31.4217   33.0022   24.0919 H   0  0  0  0  0  0
   33.1741   33.4493   24.0736 H   0  0  0  0  0  0
   32.3835   32.9416   26.3601 H   0  0  0  0  0  0
   32.8991   34.6727   26.1725 H   0  0  0  0  0  0
   29.4110   34.9141   24.9579 H   0  0  0  0  0  0
   29.7899   36.1630   26.2378 H   0  0  0  0  0  0
   31.9306   36.6338   25.1936 H   0  0  0  0  0  0
   30.6022   36.8380   23.9994 H   0  0  0  0  0  0
   32.8946   34.9119   29.5253 H   0  0  0  0  0  0
   33.2199   33.9854   28.0212 H   0  0  0  0  0  0
   33.3608   35.7762   28.0212 H   0  0  0  0  0  0
   38.8325   36.2910   18.8113 H   0  0  0  0  0  0
   36.8688   36.0839   20.3308 H   0  0  0  0  0  0
   36.2632   35.6177   15.3989 H   0  0  0  0  0  0
  1  2  2  0  0  0
  1 11  1  0  0  0
  1 29  1  0  0  0
  2  3  1  0  0  0
  2 38  1  0  0  0
  3  4  2  0  0  0
  3  9  1  0  0  0
  4  5  1  0  0  0
  4 39  1  0  0  0
  5  6  2  0  0  0
  6  7  1  0  0  0
  6  8  1  0  0  0
  7 13  1  0  0  0
  7 40  1  0  0  0
  8  9  2  0  0  0
  9 10  1  0  0  0
 10 19  1  0  0  0
 10 11  1  0  0  0
 11 12  2  0  0  0
 13 14  1  0  0  0
 13 18  1  0  0  0
 13 41  1  0  0  0
 14 15  1  0  0  0
 14 42  1  0  0  0
 14 43  1  0  0  0
 15 16  1  0  0  0
 15 44  1  0  0  0
 15 45  1  0  0  0
 16 17  1  0  0  0
 17 18  1  0  0  0
 17 46  1  0  0  0
 17 47  1  0  0  0
 18 48  1  0  0  0
 18 49  1  0  0  0
 19 20  1  0  0  0
 19 24  1  0  0  0
 19 50  1  0  0  0
 20 21  1  0  0  0
 20 51  1  0  0  0
 20 52  1  0  0  0
 21 22  1  0  0  0
 21 53  1  0  0  0
 21 54  1  0  0  0
 22 25  1  0  0  0
 22 23  1  0  0  0
 23 24  1  0  0  0
 23 55  1  0  0  0
 23 56  1  0  0  0
 24 57  1  0  0  0
 24 58  1  0  0  0
 25 27  2  0  0  0
 25 28  1  0  0  0
 25 26  2  0  0  0
 28 59  1  0  0  0
 28 60  1  0  0  0
 28 61  1  0  0  0
 29 32  1  0  0  0
 30 31  2  0  0  0
 30 36  1  0  0  0
 30 62  1  0  0  0
 31 32  1  0  0  0
 31 63  1  0  0  0
 32 33  2  0  0  0
 33 34  1  0  0  0
 33 35  1  0  0  0
 35 36  2  0  0  0
 35 64  1  0  0  0
 36 37  1  0  0  0
M  END
> <s_m_entry_id>
1481

> <MODEL>
1

> <REMARK>
 VINA RESULT:    -9.014      0.000      0.000
 INTER + INTRA:         -11.616
 INTER:                 -11.649
 INTRA:                   0.033
 UNBOUND:                 0.033
  Name = /scratch/kmzp800/tmptuzzckce/tmpvushrhwd.pdb
  6 active torsions:
  status: ('A' for Active; 'I' for Inactive)
    1  A    between atoms: C3_3  and  O1_4
    2  A    between atoms: O1_4  and  C4_5
    3  A    between atoms: N2_11  and  C9_12
    4  A    between atoms: N4_20  and  C15_21
    5  A    between atoms: N5_24  and  S1_25
    6  A    between atoms: S1_25  and  C18_28
                            x       y       z     vdW  Elec       q    Type
                         _______ _______ _______ _____ _____    ______ ____

> <TORSDO>
F 5

> <grid_id>
p38-prepared

> <grid_path>
/projects/mai/users/kmzp800_harry/pmx_colab/docking_jobs/p38/vina_docking/input_files/p38_vina.pdbqt

> <grid_filename>
p38_vina.pdbqt

> <docking_score>
-9.014

> <compound_name>
lig_p38a_2u

> <index_string>
26:0:0

> <s_m_Source_Path>
/projects/mai/users/kmzp800_harry/pmx_colab/docking_jobs/p38/gmx_prep

> <s_m_Source_File>
prepared_vina_naive_confs.sdf

> <i_m_Source_File_Index>
27

> <s_m_entry_id>
1380

> <s_m_Source_Path>
/projects/mai/users/kmzp800_harry/pmx_colab/docking_jobs/p38

> <s_m_Source_File>
p38_confs_vina_naive.sdf

> <i_m_Source_File_Index>
27

$$$$
lig_p38a_2p
                    3D
 Schrodinger Suite 2021-4.
 58 61  0  0  1  0            999 V2000
   33.4270   35.7770   20.2810 C   0  0  0  0  0  0
   33.1850   34.5900   20.9820 C   0  0  0  0  0  0
   32.8260   34.6340   22.3230 C   0  0  0  0  0  0
   32.5710   33.4700   23.0410 C   0  0  0  0  0  0
   32.2200   33.5500   24.3510 N   0  0  0  0  0  0
   32.1160   34.7550   24.9780 C   0  0  0  0  0  0
   31.7400   34.8320   26.3540 N   0  0  0  0  0  0
   32.3660   35.8990   24.2910 N   0  0  0  0  0  0
   32.7150   35.8740   22.9740 C   0  0  0  0  0  0
   32.9510   37.0340   22.2860 N   0  0  0  0  0  0
   33.3100   37.0010   20.9620 C   0  0  0  0  0  0
   33.5390   38.0740   20.3380 O   0  0  0  0  0  0
   31.3700   33.6620   27.1430 C   0  0  0  0  0  0
   32.6080   33.1000   27.8450 C   0  0  0  0  0  0
   32.9920   33.9980   29.0250 C   0  0  0  0  0  0
   31.9230   34.0730   29.9370 O   0  0  0  0  0  0
   30.9160   34.8320   29.3140 C   0  0  0  0  0  0
   30.2930   34.0300   28.1690 C   0  0  0  0  0  0
   33.8120   35.7840   18.9280 O   0  0  0  0  0  0
   37.5340   35.9830   18.6970 C   0  0  0  0  0  0
   36.2470   35.9830   19.2430 C   0  0  0  0  0  0
   35.1220   35.8110   18.4190 C   0  0  0  0  0  0
   35.3090   35.6270   17.0410 C   0  0  0  0  0  0
   34.2410   35.4480   16.2250 F   0  0  0  0  0  0
   36.5970   35.6280   16.4960 C   0  0  0  0  0  0
   37.7080   35.8080   17.3230 C   0  0  0  0  0  0
   38.9550   35.8090   16.7930 F   0  0  0  0  0  0
   32.8100   38.3230   22.9680 C   0  0  0  0  0  0
   34.1040   38.7080   23.6770 C   0  0  0  0  0  0
   33.8380   39.1890   25.0960 C   0  0  0  0  0  0
   34.4950   38.0460   26.2990 S   0  0  0  0  0  0
   33.3630   37.4150   27.0610 O   0  0  0  0  0  0
   35.2660   36.9750   25.5820 O   0  0  0  0  0  0
   35.5810   38.8720   27.4400 C   0  0  0  0  0  0
   33.2793   33.6209   20.4702 H   0  0  0  0  0  0
   32.6532   32.4890   22.5501 H   0  0  0  0  0  0
   31.7297   35.7556   26.8098 H   0  0  0  0  0  0
   30.9596   32.8923   26.4729 H   0  0  0  0  0  0
   32.3896   32.0869   28.2138 H   0  0  0  0  0  0
   33.4438   33.0640   27.1308 H   0  0  0  0  0  0
   33.8742   33.5785   29.5307 H   0  0  0  0  0  0
   33.2220   35.0071   28.6525 H   0  0  0  0  0  0
   30.1380   35.0806   30.0508 H   0  0  0  0  0  0
   31.3557   35.7565   28.9115 H   0  0  0  0  0  0
   29.5156   34.6357   27.6803 H   0  0  0  0  0  0
   29.8478   33.1087   28.5727 H   0  0  0  0  0  0
   38.4088   36.1208   19.3495 H   0  0  0  0  0  0
   36.1140   36.1188   20.3265 H   0  0  0  0  0  0
   36.7353   35.4867   15.4139 H   0  0  0  0  0  0
   32.5612   39.0971   22.2271 H   0  0  0  0  0  0
   32.0101   38.2380   23.7183 H   0  0  0  0  0  0
   34.7661   37.8304   23.7148 H   0  0  0  0  0  0
   34.5751   39.5286   23.1160 H   0  0  0  0  0  0
   34.3134   40.1709   25.2370 H   0  0  0  0  0  0
   32.7500   39.2603   25.2413 H   0  0  0  0  0  0
   35.2753   38.6395   28.4708 H   0  0  0  0  0  0
   36.6134   38.5288   27.2774 H   0  0  0  0  0  0
   35.5259   39.9585   27.2774 H   0  0  0  0  0  0
  1 11  1  0  0  0
  1  2  2  0  0  0
  1 19  1  0  0  0
  2  3  1  0  0  0
  2 35  1  0  0  0
  3  9  2  0  0  0
  3  4  1  0  0  0
  4  5  2  0  0  0
  4 36  1  0  0  0
  5  6  1  0  0  0
  6  7  1  0  0  0
  6  8  2  0  0  0
  7 13  1  0  0  0
  7 37  1  0  0  0
  8  9  1  0  0  0
  9 10  1  0  0  0
 10 28  1  0  0  0
 10 11  1  0  0  0
 11 12  2  0  0  0
 13 14  1  0  0  0
 13 18  1  0  0  0
 13 38  1  0  0  0
 14 15  1  0  0  0
 14 39  1  0  0  0
 14 40  1  0  0  0
 15 16  1  0  0  0
 15 41  1  0  0  0
 15 42  1  0  0  0
 16 17  1  0  0  0
 17 18  1  0  0  0
 17 43  1  0  0  0
 17 44  1  0  0  0
 18 45  1  0  0  0
 18 46  1  0  0  0
 19 22  1  0  0  0
 20 21  2  0  0  0
 20 26  1  0  0  0
 20 47  1  0  0  0
 21 22  1  0  0  0
 21 48  1  0  0  0
 22 23  2  0  0  0
 23 24  1  0  0  0
 23 25  1  0  0  0
 25 26  2  0  0  0
 25 49  1  0  0  0
 26 27  1  0  0  0
 28 29  1  0  0  0
 28 50  1  0  0  0
 28 51  1  0  0  0
 29 30  1  0  0  0
 29 52  1  0  0  0
 29 53  1  0  0  0
 30 31  1  0  0  0
 30 54  1  0  0  0
 30 55  1  0  0  0
 31 32  2  0  0  0
 31 34  1  0  0  0
 31 33  2  0  0  0
 34 56  1  0  0  0
 34 57  1  0  0  0
 34 58  1  0  0  0
M  END
> <s_m_entry_id>
1482

> <MODEL>
1

> <REMARK>
 VINA RESULT:    -7.405      0.000      0.000
 INTER + INTRA:         -11.926
 INTER:                 -10.436
 INTRA:                  -1.491
 UNBOUND:                -1.491
  Name = /scratch/kmzp800/tmpyl6vbeyl/tmpedfchq12.pdb
  8 active torsions:
  status: ('A' for Active; 'I' for Inactive)
    1  A    between atoms: C3_3  and  O1_4
    2  A    between atoms: O1_4  and  C4_5
    3  A    between atoms: N2_11  and  C9_12
    4  A    between atoms: N4_20  and  C15_21
    5  A    between atoms: C15_21  and  C16_22
    6  A    between atoms: C16_22  and  C17_23
    7  A    between atoms: C17_23  and  S1_24
    8  A    between atoms: S1_24  and  C18_27
                            x       y       z     vdW  Elec       q    Type
                         _______ _______ _______ _____ _____    ______ ____

> <TORSDO>
F 7

> <grid_id>
p38-prepared

> <grid_path>
/projects/mai/users/kmzp800_harry/pmx_colab/docking_jobs/p38/vina_docking/input_files/p38_vina.pdbqt

> <grid_filename>
p38_vina.pdbqt

> <docking_score>
-7.405

> <compound_name>
lig_p38a_2p

> <index_string>
27:0:0

> <s_m_Source_Path>
/projects/mai/users/kmzp800_harry/pmx_colab/docking_jobs/p38/gmx_prep

> <s_m_Source_File>
prepared_vina_naive_confs.sdf

> <i_m_Source_File_Index>
28

> <s_m_entry_id>
1381

> <s_m_Source_Path>
/projects/mai/users/kmzp800_harry/pmx_colab/docking_jobs/p38

> <s_m_Source_File>
p38_confs_vina_naive.sdf

> <i_m_Source_File_Index>
28

$$$$
lig_p38a_2g
                    3D
 Schrodinger Suite 2021-4.
 46 49  0  0  1  0            999 V2000
   34.4300   35.9320   19.8160 C   0  0  0  0  0  0
   34.6980   37.1570   20.4380 C   0  0  0  0  0  0
   34.5290   37.2860   21.8110 C   0  0  0  0  0  0
   34.7940   38.4890   22.4610 C   0  0  0  0  0  0
   34.6190   38.5800   23.8040 N   0  0  0  0  0  0
   34.1860   37.5140   24.5330 C   0  0  0  0  0  0
   34.0040   37.6210   25.9490 N   0  0  0  0  0  0
   33.9220   36.3340   23.9130 N   0  0  0  0  0  0
   34.0820   36.1890   22.5680 C   0  0  0  0  0  0
   33.8110   34.9980   21.9490 N   0  0  0  0  0  0
   33.3420   33.8630   22.7390 C   0  0  0  0  0  0
   33.9740   34.8570   20.5950 C   0  0  0  0  0  0
   33.7170   33.7560   20.0340 O   0  0  0  0  0  0
   34.2520   38.8280   26.7310 C   0  0  0  0  0  0
   35.6520   38.8060   27.3480 C   0  0  0  0  0  0
   35.7920   39.9880   28.3070 C   0  0  0  0  0  0
   34.8160   39.9030   29.3180 O   0  0  0  0  0  0
   33.5790   40.1820   28.7090 C   0  0  0  0  0  0
   33.1730   39.0240   27.7970 C   0  0  0  0  0  0
   34.5680   35.7720   18.4290 O   0  0  0  0  0  0
   38.2620   35.8800   16.4190 C   0  0  0  0  0  0
   38.2050   35.9730   17.8110 C   0  0  0  0  0  0
   36.9690   35.9360   18.4640 C   0  0  0  0  0  0
   35.7850   35.7940   17.7330 C   0  0  0  0  0  0
   35.8450   35.7220   16.3260 C   0  0  0  0  0  0
   34.7150   35.6690   15.5800 F   0  0  0  0  0  0
   37.0840   35.7600   15.6780 C   0  0  0  0  0  0
   35.0414   38.0150   19.8415 H   0  0  0  0  0  0
   35.1434   39.3611   21.8888 H   0  0  0  0  0  0
   33.6740   36.7852   26.4525 H   0  0  0  0  0  0
   33.4385   34.0966   23.8096 H   0  0  0  0  0  0
   32.2870   33.6617   22.5013 H   0  0  0  0  0  0
   33.9472   32.9757   22.5013 H   0  0  0  0  0  0
   34.2042   39.6898   26.0491 H   0  0  0  0  0  0
   35.7975   37.8650   27.8988 H   0  0  0  0  0  0
   36.4093   38.8803   26.5537 H   0  0  0  0  0  0
   36.7926   39.9707   28.7636 H   0  0  0  0  0  0
   35.6543   40.9257   27.7486 H   0  0  0  0  0  0
   32.8129   40.3195   29.4863 H   0  0  0  0  0  0
   33.6703   41.0995   28.1092 H   0  0  0  0  0  0
   32.2132   39.2555   27.3121 H   0  0  0  0  0  0
   33.0651   38.1039   28.3902 H   0  0  0  0  0  0
   39.2347   35.9012   15.9058 H   0  0  0  0  0  0
   39.1322   36.0754   18.3939 H   0  0  0  0  0  0
   36.9276   36.0191   19.5601 H   0  0  0  0  0  0
   37.1309   35.6952   14.5809 H   0  0  0  0  0  0
  1  2  2  0  0  0
  1 12  1  0  0  0
  1 20  1  0  0  0
  2  3  1  0  0  0
  2 28  1  0  0  0
  3  4  2  0  0  0
  3  9  1  0  0  0
  4  5  1  0  0  0
  4 29  1  0  0  0
  5  6  2  0  0  0
  6  7  1  0  0  0
  6  8  1  0  0  0
  7 14  1  0  0  0
  7 30  1  0  0  0
  8  9  2  0  0  0
  9 10  1  0  0  0
 10 11  1  0  0  0
 10 12  1  0  0  0
 11 31  1  0  0  0
 11 32  1  0  0  0
 11 33  1  0  0  0
 12 13  2  0  0  0
 14 15  1  0  0  0
 14 19  1  0  0  0
 14 34  1  0  0  0
 15 16  1  0  0  0
 15 35  1  0  0  0
 15 36  1  0  0  0
 16 17  1  0  0  0
 16 37  1  0  0  0
 16 38  1  0  0  0
 17 18  1  0  0  0
 18 19  1  0  0  0
 18 39  1  0  0  0
 18 40  1  0  0  0
 19 41  1  0  0  0
 19 42  1  0  0  0
 20 24  1  0  0  0
 21 22  2  0  0  0
 21 27  1  0  0  0
 21 43  1  0  0  0
 22 23  1  0  0  0
 22 44  1  0  0  0
 23 24  2  0  0  0
 23 45  1  0  0  0
 24 25  1  0  0  0
 25 26  1  0  0  0
 25 27  2  0  0  0
 27 46  1  0  0  0
M  END
> <s_m_entry_id>
1483

> <MODEL>
1

> <REMARK>
 VINA RESULT:    -8.327      0.000      0.000
 INTER + INTRA:         -10.173
 INTER:                  -9.787
 INTRA:                  -0.386
 UNBOUND:                -0.386
  Name = /scratch/kmzp800/tmpk14sf23b/tmpa1qn73xw.pdb
  4 active torsions:
  status: ('A' for Active; 'I' for Inactive)
    1  A    between atoms: C4_4  and  O1_5
    2  A    between atoms: O1_5  and  C5_6
    3  A    between atoms: N2_12  and  C10_13
    4  A    between atoms: N4_21  and  C16_22
                            x       y       z     vdW  Elec       q    Type
                         _______ _______ _______ _____ _____    ______ ____

> <TORSDO>
F 3

> <grid_id>
p38-prepared

> <grid_path>
/projects/mai/users/kmzp800_harry/pmx_colab/docking_jobs/p38/vina_docking/input_files/p38_vina.pdbqt

> <grid_filename>
p38_vina.pdbqt

> <docking_score>
-8.327

> <compound_name>
lig_p38a_2g

> <index_string>
28:0:0

> <s_m_Source_Path>
/projects/mai/users/kmzp800_harry/pmx_colab/docking_jobs/p38/gmx_prep

> <s_m_Source_File>
prepared_vina_naive_confs.sdf

> <i_m_Source_File_Index>
29

> <s_m_entry_id>
1382

> <s_m_Source_Path>
/projects/mai/users/kmzp800_harry/pmx_colab/docking_jobs/p38

> <s_m_Source_File>
p38_confs_vina_naive.sdf

> <i_m_Source_File_Index>
29

$$$$
lig_p38a_2o
                    3D
 Schrodinger Suite 2021-4.
 55 58  0  0  1  0            999 V2000
   33.5670   35.9980   20.0950 C   0  0  0  0  0  0
   33.5480   37.3820   20.2530 C   0  0  0  0  0  0
   33.3450   37.9330   21.5120 C   0  0  0  0  0  0
   33.3120   39.3120   21.6980 C   0  0  0  0  0  0
   33.1020   39.8210   22.9400 N   0  0  0  0  0  0
   32.9220   39.0020   24.0110 C   0  0  0  0  0  0
   32.6900   39.5700   25.3020 N   0  0  0  0  0  0
   32.9550   37.6520   23.8460 N   0  0  0  0  0  0
   33.1620   37.0930   22.6220 C   0  0  0  0  0  0
   33.1910   35.7320   22.4660 N   0  0  0  0  0  0
   33.4170   35.1750   21.2320 C   0  0  0  0  0  0
   33.5130   33.9210   21.1120 O   0  0  0  0  0  0
   32.4730   38.7570   26.4890 C   0  0  0  0  0  0
   32.7660   39.5670   27.7580 C   0  0  0  0  0  0
   32.1610   38.9030   29.0050 C   0  0  0  0  0  0
   31.7400   37.5890   28.7360 O   0  0  0  0  0  0
   30.6300   37.7030   27.8800 C   0  0  0  0  0  0
   31.0450   38.2040   26.4870 C   0  0  0  0  0  0
   33.7730   35.4760   18.8100 O   0  0  0  0  0  0
   37.3570   35.9880   18.0830 C   0  0  0  0  0  0
   36.1470   35.8650   18.7690 C   0  0  0  0  0  0
   34.9640   35.5810   18.0770 C   0  0  0  0  0  0
   35.0000   35.4520   16.6720 C   0  0  0  0  0  0
   33.8680   35.2460   15.9560 F   0  0  0  0  0  0
   36.2160   35.5760   15.9910 C   0  0  0  0  0  0
   37.3930   35.8360   16.6950 C   0  0  0  0  0  0
   38.5680   35.9540   16.0310 F   0  0  0  0  0  0
   33.0140   34.8690   23.6380 C   0  0  0  0  0  0
   31.5410   34.7470   24.0210 C   0  0  0  0  0  0
   30.8140   33.2400   23.4020 S   0  0  0  0  0  0
   30.1480   33.5270   22.0860 O   0  0  0  0  0  0
   31.8800   32.2000   23.1990 O   0  0  0  0  0  0
   29.5940   32.6300   24.5420 C   0  0  0  0  0  0
   33.6936   38.0377   19.3819 H   0  0  0  0  0  0
   33.4555   39.9877   20.8419 H   0  0  0  0  0  0
   32.6759   40.5956   25.3957 H   0  0  0  0  0  0
   33.1685   37.9049   26.4769 H   0  0  0  0  0  0
   33.8555   39.6450   27.8881 H   0  0  0  0  0  0
   32.3119   40.5623   27.6435 H   0  0  0  0  0  0
   32.9198   38.8793   29.8010 H   0  0  0  0  0  0
   31.2842   39.4893   29.3171 H   0  0  0  0  0  0
   30.1536   36.7167   27.7784 H   0  0  0  0  0  0
   29.9303   38.4314   28.3156 H   0  0  0  0  0  0
   30.3542   39.0006   26.1737 H   0  0  0  0  0  0
   31.0063   37.3538   25.7901 H   0  0  0  0  0  0
   38.2827   36.2048   18.6362 H   0  0  0  0  0  0
   36.1234   35.9922   19.8614 H   0  0  0  0  0  0
   36.2446   35.4682   14.8967 H   0  0  0  0  0  0
   33.4085   33.8681   23.4086 H   0  0  0  0  0  0
   33.5562   35.3172   24.4837 H   0  0  0  0  0  0
   31.4568   34.7579   25.1177 H   0  0  0  0  0  0
   31.0014   35.5944   23.5729 H   0  0  0  0  0  0
   29.9372   32.8016   25.5729 H   0  0  0  0  0  0
   28.6433   33.1588   24.3793 H   0  0  0  0  0  0
   29.4466   31.5521   24.3793 H   0  0  0  0  0  0
  1  2  2  0  0  0
  1 11  1  0  0  0
  1 19  1  0  0  0
  2  3  1  0  0  0
  2 34  1  0  0  0
  3  4  2  0  0  0
  3  9  1  0  0  0
  4  5  1  0  0  0
  4 35  1  0  0  0
  5  6  2  0  0  0
  6  7  1  0  0  0
  6  8  1  0  0  0
  7 13  1  0  0  0
  7 36  1  0  0  0
  8  9  2  0  0  0
  9 10  1  0  0  0
 10 28  1  0  0  0
 10 11  1  0  0  0
 11 12  2  0  0  0
 13 14  1  0  0  0
 13 18  1  0  0  0
 13 37  1  0  0  0
 14 15  1  0  0  0
 14 38  1  0  0  0
 14 39  1  0  0  0
 15 16  1  0  0  0
 15 40  1  0  0  0
 15 41  1  0  0  0
 16 17  1  0  0  0
 17 18  1  0  0  0
 17 42  1  0  0  0
 17 43  1  0  0  0
 18 44  1  0  0  0
 18 45  1  0  0  0
 19 22  1  0  0  0
 20 21  2  0  0  0
 20 26  1  0  0  0
 20 46  1  0  0  0
 21 22  1  0  0  0
 21 47  1  0  0  0
 22 23  2  0  0  0
 23 24  1  0  0  0
 23 25  1  0  0  0
 25 26  2  0  0  0
 25 48  1  0  0  0
 26 27  1  0  0  0
 28 29  1  0  0  0
 28 49  1  0  0  0
 28 50  1  0  0  0
 29 30  1  0  0  0
 29 51  1  0  0  0
 29 52  1  0  0  0
 30 33  1  0  0  0
 30 31  2  0  0  0
 30 32  2  0  0  0
 33 53  1  0  0  0
 33 54  1  0  0  0
 33 55  1  0  0  0
M  END
> <s_m_entry_id>
1484

> <MODEL>
1

> <REMARK>
 VINA RESULT:    -8.771      0.000      0.000
 INTER + INTRA:         -12.686
 INTER:                 -11.847
 INTRA:                  -0.839
 UNBOUND:                -0.839
  Name = /scratch/kmzp800/tmprm89ok9b/tmp0bn08ixf.pdb
  7 active torsions:
  status: ('A' for Active; 'I' for Inactive)
    1  A    between atoms: C3_3  and  O1_4
    2  A    between atoms: O1_4  and  C4_5
    3  A    between atoms: N2_11  and  C9_12
    4  A    between atoms: N4_20  and  C15_21
    5  A    between atoms: C15_21  and  C16_22
    6  A    between atoms: C16_22  and  S1_23
    7  A    between atoms: S1_23  and  C17_26
                            x       y       z     vdW  Elec       q    Type
                         _______ _______ _______ _____ _____    ______ ____

> <TORSDO>
F 6

> <grid_id>
p38-prepared

> <grid_path>
/projects/mai/users/kmzp800_harry/pmx_colab/docking_jobs/p38/vina_docking/input_files/p38_vina.pdbqt

> <grid_filename>
p38_vina.pdbqt

> <docking_score>
-8.771

> <compound_name>
lig_p38a_2o

> <index_string>
29:0:0

> <s_m_Source_Path>
/projects/mai/users/kmzp800_harry/pmx_colab/docking_jobs/p38/gmx_prep

> <s_m_Source_File>
prepared_vina_naive_confs.sdf

> <i_m_Source_File_Index>
30

> <s_m_entry_id>
1383

> <s_m_Source_Path>
/projects/mai/users/kmzp800_harry/pmx_colab/docking_jobs/p38

> <s_m_Source_File>
p38_confs_vina_naive.sdf

> <i_m_Source_File_Index>
30

$$$$
lig_p38a_2f
                    3D
 Schrodinger Suite 2021-4.
 46 49  0  0  1  0            999 V2000
   34.3640   36.2590   20.2130 C   0  0  0  0  0  0
   34.1160   37.6050   20.4780 C   0  0  0  0  0  0
   34.1820   38.0760   21.7830 C   0  0  0  0  0  0
   33.9510   39.4170   22.0780 C   0  0  0  0  0  0
   34.0280   39.8470   23.3640 N   0  0  0  0  0  0
   34.3310   38.9890   24.3740 C   0  0  0  0  0  0
   34.4020   39.4780   25.7150 N   0  0  0  0  0  0
   34.5570   37.6740   24.1040 N   0  0  0  0  0  0
   34.4910   37.1930   22.8320 C   0  0  0  0  0  0
   34.7130   35.8690   22.5670 N   0  0  0  0  0  0
   35.0170   34.9540   23.6640 C   0  0  0  0  0  0
   34.6420   35.3860   21.2850 C   0  0  0  0  0  0
   34.7970   34.1530   21.0640 O   0  0  0  0  0  0
   34.7470   38.6310   26.8490 C   0  0  0  0  0  0
   33.4700   38.0060   27.4270 C   0  0  0  0  0  0
   32.7890   38.9130   28.4650 C   0  0  0  0  0  0
   33.2730   40.2300   28.3880 O   0  0  0  0  0  0
   34.5900   40.1830   28.8750 C   0  0  0  0  0  0
   35.5200   39.4430   27.9000 C   0  0  0  0  0  0
   34.2850   35.8150   18.8840 O   0  0  0  0  0  0
   36.2650   35.5090   15.7450 C   0  0  0  0  0  0
   37.5570   35.6970   16.2440 C   0  0  0  0  0  0
   37.7520   35.9240   17.6100 C   0  0  0  0  0  0
   39.0040   36.1010   18.0940 F   0  0  0  0  0  0
   36.6560   35.9650   18.4760 C   0  0  0  0  0  0
   35.3590   35.7880   17.9840 C   0  0  0  0  0  0
   35.1690   35.5510   16.6120 C   0  0  0  0  0  0
   33.8686   38.2924   19.6556 H   0  0  0  0  0  0
   33.7071   40.1254   21.2726 H   0  0  0  0  0  0
   34.2003   40.4733   25.8873 H   0  0  0  0  0  0
   34.8477   35.4635   24.6241 H   0  0  0  0  0  0
   34.3638   34.0715   23.5971 H   0  0  0  0  0  0
   36.0685   34.6378   23.5971 H   0  0  0  0  0  0
   35.4055   37.8134   26.5206 H   0  0  0  0  0  0
   32.7644   37.8200   26.6039 H   0  0  0  0  0  0
   33.7545   37.0723   27.9341 H   0  0  0  0  0  0
   31.7047   38.9183   28.2797 H   0  0  0  0  0  0
   33.0105   38.5198   29.4682 H   0  0  0  0  0  0
   34.9584   41.2104   29.0116 H   0  0  0  0  0  0
   34.5872   39.6402   29.8317 H   0  0  0  0  0  0
   36.1596   38.7571   28.4749 H   0  0  0  0  0  0
   36.1141   40.1995   27.3664 H   0  0  0  0  0  0
   36.1106   35.3281   14.6710 H   0  0  0  0  0  0
   38.4200   35.6664   15.5626 H   0  0  0  0  0  0
   36.8144   36.1375   19.5508 H   0  0  0  0  0  0
   34.1533   35.3978   16.2184 H   0  0  0  0  0  0
  1  2  2  0  0  0
  1 12  1  0  0  0
  1 20  1  0  0  0
  2  3  1  0  0  0
  2 28  1  0  0  0
  3  4  2  0  0  0
  3  9  1  0  0  0
  4  5  1  0  0  0
  4 29  1  0  0  0
  5  6  2  0  0  0
  6  7  1  0  0  0
  6  8  1  0  0  0
  7 14  1  0  0  0
  7 30  1  0  0  0
  8  9  2  0  0  0
  9 10  1  0  0  0
 10 11  1  0  0  0
 10 12  1  0  0  0
 11 31  1  0  0  0
 11 32  1  0  0  0
 11 33  1  0  0  0
 12 13  2  0  0  0
 14 15  1  0  0  0
 14 19  1  0  0  0
 14 34  1  0  0  0
 15 16  1  0  0  0
 15 35  1  0  0  0
 15 36  1  0  0  0
 16 17  1  0  0  0
 16 37  1  0  0  0
 16 38  1  0  0  0
 17 18  1  0  0  0
 18 19  1  0  0  0
 18 39  1  0  0  0
 18 40  1  0  0  0
 19 41  1  0  0  0
 19 42  1  0  0  0
 20 26  1  0  0  0
 21 22  2  0  0  0
 21 27  1  0  0  0
 21 43  1  0  0  0
 22 23  1  0  0  0
 22 44  1  0  0  0
 23 24  1  0  0  0
 23 25  2  0  0  0
 25 26  1  0  0  0
 25 45  1  0  0  0
 26 27  2  0  0  0
 27 46  1  0  0  0
M  END
> <s_m_entry_id>
1485

> <MODEL>
1

> <REMARK>
 VINA RESULT:    -8.626      0.000      0.000
 INTER + INTRA:         -10.720
 INTER:                 -10.139
 INTRA:                  -0.582
 UNBOUND:                -0.582
  Name = /scratch/kmzp800/tmplu6gks_7/tmpv7yg1z7b.pdb
  4 active torsions:
  status: ('A' for Active; 'I' for Inactive)
    1  A    between atoms: C5_6  and  O1_7
    2  A    between atoms: O1_7  and  C6_8
    3  A    between atoms: N2_14  and  C11_15
    4  A    between atoms: N4_23  and  C17_24
                            x       y       z     vdW  Elec       q    Type
                         _______ _______ _______ _____ _____    ______ ____

> <TORSDO>
F 3

> <grid_id>
p38-prepared

> <grid_path>
/projects/mai/users/kmzp800_harry/pmx_colab/docking_jobs/p38/vina_docking/input_files/p38_vina.pdbqt

> <grid_filename>
p38_vina.pdbqt

> <docking_score>
-8.626

> <compound_name>
lig_p38a_2f

> <index_string>
30:0:0

> <s_m_Source_Path>
/projects/mai/users/kmzp800_harry/pmx_colab/docking_jobs/p38/gmx_prep

> <s_m_Source_File>
prepared_vina_naive_confs.sdf

> <i_m_Source_File_Index>
31

> <s_m_entry_id>
1384

> <s_m_Source_Path>
/projects/mai/users/kmzp800_harry/pmx_colab/docking_jobs/p38

> <s_m_Source_File>
p38_confs_vina_naive.sdf

> <i_m_Source_File_Index>
31

$$$$
lig_p38a_2c
                    3D
 Schrodinger Suite 2021-4.
 45 48  0  0  1  0            999 V2000
   35.4130   36.4970   19.8250 C   0  0  0  0  0  0
   35.2150   37.8560   20.0850 C   0  0  0  0  0  0
   34.6390   38.2590   21.2830 C   0  0  0  0  0  0
   34.4260   39.6050   21.5640 C   0  0  0  0  0  0
   33.8620   39.9670   22.7460 N   0  0  0  0  0  0
   33.5000   39.0320   23.6660 C   0  0  0  0  0  0
   32.9080   39.4510   24.9000 N   0  0  0  0  0  0
   33.7030   37.7110   23.4060 N   0  0  0  0  0  0
   34.2640   37.2980   22.2360 C   0  0  0  0  0  0
   34.4660   35.9680   21.9830 N   0  0  0  0  0  0
   34.0720   34.9770   22.9820 C   0  0  0  0  0  0
   35.0300   35.5530   20.8040 C   0  0  0  0  0  0
   35.1960   34.3210   20.5840 O   0  0  0  0  0  0
   37.3510   35.3710   16.1660 C   0  0  0  0  0  0
   38.0980   35.7990   17.2640 C   0  0  0  0  0  0
   37.4530   36.1540   18.4510 C   0  0  0  0  0  0
   36.0550   36.0870   18.5550 C   0  0  0  0  0  0
   35.3050   35.6500   17.4390 C   0  0  0  0  0  0
   33.5560   35.4720   17.4910 Cl  0  0  0  0  0  0
   35.9610   35.2960   16.2550 C   0  0  0  0  0  0
   32.4790   38.5460   25.9630 C   0  0  0  0  0  0
   31.1320   37.9020   25.6230 C   0  0  0  0  0  0
   30.6280   37.1280   26.8400 C   0  0  0  0  0  0
   30.4850   37.9990   27.9360 O   0  0  0  0  0  0
   31.7850   38.3470   28.3460 C   0  0  0  0  0  0
   32.4290   39.2680   27.3110 C   0  0  0  0  0  0
   35.5157   38.6073   19.3399 H   0  0  0  0  0  0
   34.7133   40.3737   20.8315 H   0  0  0  0  0  0
   32.7753   40.4615   25.0487 H   0  0  0  0  0  0
   34.2351   35.3872   23.9895 H   0  0  0  0  0  0
   33.0076   34.7307   22.8542 H   0  0  0  0  0  0
   34.6768   34.0671   22.8542 H   0  0  0  0  0  0
   37.8581   35.0928   15.2304 H   0  0  0  0  0  0
   39.1943   35.8568   17.1949 H   0  0  0  0  0  0
   38.0472   36.4897   19.3137 H   0  0  0  0  0  0
   35.3761   34.9559   15.3877 H   0  0  0  0  0  0
   33.2225   37.7396   26.0457 H   0  0  0  0  0  0
   30.4060   38.6845   25.3573 H   0  0  0  0  0  0
   31.2528   37.2165   24.7712 H   0  0  0  0  0  0
   29.6540   36.6737   26.6056 H   0  0  0  0  0  0
   31.3535   36.3414   27.0948 H   0  0  0  0  0  0
   31.7351   38.8658   29.3147 H   0  0  0  0  0  0
   32.3901   37.4336   28.4435 H   0  0  0  0  0  0
   33.4501   39.5241   27.6301 H   0  0  0  0  0  0
   31.8378   40.1908   27.2162 H   0  0  0  0  0  0
  1  2  2  0  0  0
  1 12  1  0  0  0
  1 17  1  0  0  0
  2  3  1  0  0  0
  2 27  1  0  0  0
  3  4  2  0  0  0
  3  9  1  0  0  0
  4  5  1  0  0  0
  4 28  1  0  0  0
  5  6  2  0  0  0
  6  7  1  0  0  0
  6  8  1  0  0  0
  7 21  1  0  0  0
  7 29  1  0  0  0
  8  9  2  0  0  0
  9 10  1  0  0  0
 10 11  1  0  0  0
 10 12  1  0  0  0
 11 30  1  0  0  0
 11 31  1  0  0  0
 11 32  1  0  0  0
 12 13  2  0  0  0
 14 20  2  0  0  0
 14 15  1  0  0  0
 14 33  1  0  0  0
 15 16  2  0  0  0
 15 34  1  0  0  0
 16 17  1  0  0  0
 16 35  1  0  0  0
 17 18  2  0  0  0
 18 19  1  0  0  0
 18 20  1  0  0  0
 20 36  1  0  0  0
 21 26  1  0  0  0
 21 22  1  0  0  0
 21 37  1  0  0  0
 22 23  1  0  0  0
 22 38  1  0  0  0
 22 39  1  0  0  0
 23 24  1  0  0  0
 23 40  1  0  0  0
 23 41  1  0  0  0
 24 25  1  0  0  0
 25 26  1  0  0  0
 25 42  1  0  0  0
 25 43  1  0  0  0
 26 44  1  0  0  0
 26 45  1  0  0  0
M  END
> <s_m_entry_id>
1486

> <MODEL>
1

> <REMARK>
 VINA RESULT:    -8.739      0.000      0.000
 INTER + INTRA:         -10.367
 INTER:                  -9.761
 INTRA:                  -0.606
 UNBOUND:                -0.606
  Name = /scratch/kmzp800/tmp9piqubn6/tmp3ac_9srt.pdb
  3 active torsions:
  status: ('A' for Active; 'I' for Inactive)
    1  A    between atoms: C4_4  and  C5_5
    2  A    between atoms: N2_11  and  C10_12
    3  A    between atoms: N4_20  and  C16_21
                            x       y       z     vdW  Elec       q    Type
                         _______ _______ _______ _____ _____    ______ ____

> <TORSDO>
F 2

> <grid_id>
p38-prepared

> <grid_path>
/projects/mai/users/kmzp800_harry/pmx_colab/docking_jobs/p38/vina_docking/input_files/p38_vina.pdbqt

> <grid_filename>
p38_vina.pdbqt

> <docking_score>
-8.739

> <compound_name>
lig_p38a_2c

> <index_string>
31:0:0

> <s_m_Source_Path>
/projects/mai/users/kmzp800_harry/pmx_colab/docking_jobs/p38/gmx_prep

> <s_m_Source_File>
prepared_vina_naive_confs.sdf

> <i_m_Source_File_Index>
32

> <s_m_entry_id>
1385

> <s_m_Source_Path>
/projects/mai/users/kmzp800_harry/pmx_colab/docking_jobs/p38

> <s_m_Source_File>
p38_confs_vina_naive.sdf

> <i_m_Source_File_Index>
32

$$$$
lig_p38a_2m
                    3D
 Schrodinger Suite 2021-4.
 50 54  0  0  1  0            999 V2000
   33.0480   37.0900   24.8940 C   0  0  0  0  0  0
   33.8430   37.7730   23.9800 C   0  0  0  0  0  0
   34.1430   37.1930   22.7560 C   0  0  0  0  0  0
   34.9530   37.8480   21.8340 C   0  0  0  0  0  0
   35.2480   37.2500   20.6500 N   0  0  0  0  0  0
   34.7650   36.0140   20.3490 C   0  0  0  0  0  0
   35.0820   35.3860   19.1020 N   0  0  0  0  0  0
   33.9700   35.3630   21.2390 N   0  0  0  0  0  0
   33.6370   35.9200   22.4390 C   0  0  0  0  0  0
   32.8310   35.2530   23.3320 N   0  0  0  0  0  0
   32.5820   35.7970   24.5710 C   0  0  0  0  0  0
   31.9570   35.1310   25.4430 O   0  0  0  0  0  0
   35.9200   35.9780   18.0620 C   0  0  0  0  0  0
   35.5050   35.4830   16.6750 C   0  0  0  0  0  0
   36.5250   35.9730   15.6480 C   0  0  0  0  0  0
   37.8060   35.4870   15.9730 O   0  0  0  0  0  0
   38.2180   36.1770   17.1270 C   0  0  0  0  0  0
   37.4010   35.7120   18.3330 C   0  0  0  0  0  0
   32.3340   33.9020   23.0070 C   0  0  0  0  0  0
   30.8190   33.9050   22.8320 C   0  0  0  0  0  0
   31.7080   33.8750   21.6170 C   0  0  0  0  0  0
   32.7810   37.6990   26.1280 O   0  0  0  0  0  0
   35.3290   39.4420   28.1560 C   0  0  0  0  0  0
   34.3870   39.1620   27.1640 C   0  0  0  0  0  0
   33.7250   37.9280   27.1400 C   0  0  0  0  0  0
   33.9990   36.9790   28.1480 C   0  0  0  0  0  0
   33.3300   35.8020   28.2020 F   0  0  0  0  0  0
   34.9440   37.2660   29.1380 C   0  0  0  0  0  0
   35.6130   38.4910   29.1390 C   0  0  0  0  0  0
   36.5280   38.7620   30.1000 F   0  0  0  0  0  0
   34.2333   38.7713   24.2271 H   0  0  0  0  0  0
   35.3534   38.8467   22.0626 H   0  0  0  0  0  0
   34.6911   34.4495   18.9254 H   0  0  0  0  0  0
   35.7705   37.0676   18.0830 H   0  0  0  0  0  0
   35.4746   34.3834   16.6694 H   0  0  0  0  0  0
   34.5073   35.8722   16.4239 H   0  0  0  0  0  0
   36.2400   35.6100   14.6495 H   0  0  0  0  0  0
   36.5436   37.0728   15.6534 H   0  0  0  0  0  0
   39.2841   35.9770   17.3100 H   0  0  0  0  0  0
   38.0613   37.2556   16.9785 H   0  0  0  0  0  0
   37.7175   36.2662   19.2289 H   0  0  0  0  0  0
   37.5616   34.6365   18.4989 H   0  0  0  0  0  0
   33.0623   33.2880   23.5571 H   0  0  0  0  0  0
   30.2331   33.0151   23.1055 H   0  0  0  0  0  0
   29.9997   34.5526   23.1776 H   0  0  0  0  0  0
   31.7781   34.7591   20.9663 H   0  0  0  0  0  0
   31.7985   33.2192   20.7385 H   0  0  0  0  0  0
   35.8477   40.4120   28.1634 H   0  0  0  0  0  0
   34.1631   39.9165   26.3954 H   0  0  0  0  0  0
   35.1611   36.5230   29.9195 H   0  0  0  0  0  0
  1 22  1  0  0  0
  1  2  2  0  0  0
  1 11  1  0  0  0
  2  3  1  0  0  0
  2 31  1  0  0  0
  3  4  2  0  0  0
  3  9  1  0  0  0
  4  5  1  0  0  0
  4 32  1  0  0  0
  5  6  2  0  0  0
  6  8  1  0  0  0
  6  7  1  0  0  0
  7 13  1  0  0  0
  7 33  1  0  0  0
  8  9  2  0  0  0
  9 10  1  0  0  0
 10 11  1  0  0  0
 10 19  1  0  0  0
 11 12  2  0  0  0
 13 18  1  0  0  0
 13 14  1  0  0  0
 13 34  1  0  0  0
 14 15  1  0  0  0
 14 35  1  0  0  0
 14 36  1  0  0  0
 15 16  1  0  0  0
 15 37  1  0  0  0
 15 38  1  0  0  0
 16 17  1  0  0  0
 17 18  1  0  0  0
 17 39  1  0  0  0
 17 40  1  0  0  0
 18 41  1  0  0  0
 18 42  1  0  0  0
 19 20  1  0  0  0
 19 21  1  0  0  0
 19 43  1  0  0  0
 20 21  1  0  0  0
 20 44  1  0  0  0
 20 45  1  0  0  0
 21 46  1  0  0  0
 21 47  1  0  0  0
 22 25  1  0  0  0
 23 29  2  0  0  0
 23 24  1  0  0  0
 23 48  1  0  0  0
 24 25  2  0  0  0
 24 49  1  0  0  0
 25 26  1  0  0  0
 26 27  1  0  0  0
 26 28  2  0  0  0
 28 29  1  0  0  0
 28 50  1  0  0  0
 29 30  1  0  0  0
M  END
> <s_m_entry_id>
1487

> <MODEL>
1

> <REMARK>
 VINA RESULT:    -7.522      0.000      0.000
 INTER + INTRA:          -8.812
 INTER:                  -9.282
 INTRA:                   0.469
 UNBOUND:                 0.469
  Name = /scratch/kmzp800/tmp5ddzfybu/tmp2qami0op.pdb
  4 active torsions:
  status: ('A' for Active; 'I' for Inactive)
    1  A    between atoms: C3_3  and  O1_4
    2  A    between atoms: O1_4  and  C4_5
    3  A    between atoms: N2_11  and  C9_12
    4  A    between atoms: N4_20  and  C15_21
                            x       y       z     vdW  Elec       q    Type
                         _______ _______ _______ _____ _____    ______ ____

> <TORSDO>
F 4

> <grid_id>
p38-prepared

> <grid_path>
/projects/mai/users/kmzp800_harry/pmx_colab/docking_jobs/p38/vina_docking/input_files/p38_vina.pdbqt

> <grid_filename>
p38_vina.pdbqt

> <docking_score>
-7.522

> <compound_name>
lig_p38a_2m

> <index_string>
32:0:0

> <s_m_Source_Path>
/projects/mai/users/kmzp800_harry/pmx_colab/docking_jobs/p38/gmx_prep

> <s_m_Source_File>
prepared_vina_naive_confs.sdf

> <i_m_Source_File_Index>
33

> <s_m_entry_id>
1386

> <s_m_Source_Path>
/projects/mai/users/kmzp800_harry/pmx_colab/docking_jobs/p38

> <s_m_Source_File>
p38_confs_vina_naive.sdf

> <i_m_Source_File_Index>
33

$$$$
lig_p38a_2ee
                    3D
 Schrodinger Suite 2021-4.
 52 55  0  0  1  0            999 V2000
   33.4790   35.4890   19.9130 C   0  0  0  0  0  0
   33.3000   36.7410   20.4980 C   0  0  0  0  0  0
   32.8600   36.8350   21.8120 C   0  0  0  0  0  0
   32.6840   38.0720   22.4260 C   0  0  0  0  0  0
   32.2560   38.1290   23.7150 N   0  0  0  0  0  0
   31.9970   36.9940   24.4210 C   0  0  0  0  0  0
   31.5460   37.0670   25.7740 N   0  0  0  0  0  0
   32.1610   35.7780   23.8340 N   0  0  0  0  0  0
   32.5880   35.6670   22.5450 C   0  0  0  0  0  0
   32.7450   34.4410   21.9580 N   0  0  0  0  0  0
   32.4440   33.2320   22.7220 C   0  0  0  0  0  0
   33.1690   34.3310   20.6590 C   0  0  0  0  0  0
   33.2640   33.1940   20.1200 O   0  0  0  0  0  0
   31.3780   38.3260   26.4870 C   0  0  0  0  0  0
   32.6450   39.1880   26.3370 C   0  0  0  0  0  0
   33.1790   39.7060   27.6710 C   0  0  0  0  0  0
   33.3080   38.5970   28.6150 N   0  0  0  0  0  0
   34.4940   38.4550   29.4130 C   0  0  0  0  0  0
   34.5940   37.5110   30.2400 O   0  0  0  0  0  0
   35.6280   39.4160   29.2810 C   0  0  0  0  0  0
   32.2050   37.6450   28.7810 C   0  0  0  0  0  0
   30.9910   38.0490   27.9430 C   0  0  0  0  0  0
   33.9190   35.4340   18.5830 O   0  0  0  0  0  0
   37.5660   35.9870   18.7540 C   0  0  0  0  0  0
   36.2320   35.8010   19.1270 C   0  0  0  0  0  0
   35.2400   35.6260   18.1570 C   0  0  0  0  0  0
   35.6050   35.6090   16.7930 C   0  0  0  0  0  0
   34.6860   35.3720   15.8250 F   0  0  0  0  0  0
   36.9410   35.7940   16.4250 C   0  0  0  0  0  0
   37.9190   35.9910   17.4030 C   0  0  0  0  0  0
   39.2110   36.1710   17.0410 F   0  0  0  0  0  0
   33.5069   37.6537   19.9199 H   0  0  0  0  0  0
   32.8903   38.9989   21.8707 H   0  0  0  0  0  0
   31.3297   36.1895   26.2681 H   0  0  0  0  0  0
   32.4995   33.4548   23.7978 H   0  0  0  0  0  0
   31.4315   32.8826   22.4716 H   0  0  0  0  0  0
   33.1745   32.4487   22.4716 H   0  0  0  0  0  0
   30.5541   38.9093   26.0500 H   0  0  0  0  0  0
   33.4274   38.5801   25.8591 H   0  0  0  0  0  0
   32.3753   40.0643   25.7293 H   0  0  0  0  0  0
   34.1642   40.1698   27.5151 H   0  0  0  0  0  0
   32.4799   40.4512   28.0783 H   0  0  0  0  0  0
   35.9766   39.7114   30.2816 H   0  0  0  0  0  0
   36.4523   38.9373   28.7321 H   0  0  0  0  0  0
   35.2910   40.3077   28.7321 H   0  0  0  0  0  0
   32.5425   36.6470   28.4648 H   0  0  0  0  0  0
   31.9088   37.6383   29.8403 H   0  0  0  0  0  0
   30.5467   38.9585   28.3735 H   0  0  0  0  0  0
   30.2718   37.2167   27.9555 H   0  0  0  0  0  0
   38.3378   36.1302   19.5246 H   0  0  0  0  0  0
   35.9600   35.7922   20.1928 H   0  0  0  0  0  0
   37.2231   35.7844   15.3618 H   0  0  0  0  0  0
  1  2  2  0  0  0
  1 12  1  0  0  0
  1 23  1  0  0  0
  2  3  1  0  0  0
  2 32  1  0  0  0
  3  4  2  0  0  0
  3  9  1  0  0  0
  4  5  1  0  0  0
  4 33  1  0  0  0
  5  6  2  0  0  0
  6  7  1  0  0  0
  6  8  1  0  0  0
  7 14  1  0  0  0
  7 34  1  0  0  0
  8  9  2  0  0  0
  9 10  1  0  0  0
 10 11  1  0  0  0
 10 12  1  0  0  0
 11 35  1  0  0  0
 11 36  1  0  0  0
 11 37  1  0  0  0
 12 13  2  0  0  0
 14 22  1  0  0  0
 14 15  1  0  0  0
 14 38  1  0  0  0
 15 16  1  0  0  0
 15 39  1  0  0  0
 15 40  1  0  0  0
 16 17  1  0  0  0
 16 41  1  0  0  0
 16 42  1  0  0  0
 17 21  1  0  0  0
 17 18  1  0  0  0
 18 19  2  0  0  0
 18 20  1  0  0  0
 20 43  1  0  0  0
 20 44  1  0  0  0
 20 45  1  0  0  0
 21 22  1  0  0  0
 21 46  1  0  0  0
 21 47  1  0  0  0
 22 48  1  0  0  0
 22 49  1  0  0  0
 23 26  1  0  0  0
 24 25  2  0  0  0
 24 30  1  0  0  0
 24 50  1  0  0  0
 25 26  1  0  0  0
 25 51  1  0  0  0
 26 27  2  0  0  0
 27 28  1  0  0  0
 27 29  1  0  0  0
 29 30  2  0  0  0
 29 52  1  0  0  0
 30 31  1  0  0  0
M  END
> <s_m_entry_id>
1488

> <MODEL>
1

> <REMARK>
 VINA RESULT:    -8.932      0.000      0.000
 INTER + INTRA:         -10.501
 INTER:                 -10.498
 INTRA:                  -0.003
 UNBOUND:                -0.003
  Name = /scratch/kmzp800/tmp0kncosh4/tmpacndikmg.pdb
  5 active torsions:
  status: ('A' for Active; 'I' for Inactive)
    1  A    between atoms: C3_3  and  O1_4
    2  A    between atoms: O1_4  and  C4_5
    3  A    between atoms: N2_11  and  C9_12
    4  A    between atoms: C12_16  and  C13_18
    5  A    between atoms: N5_23  and  C17_24
                            x       y       z     vdW  Elec       q    Type
                         _______ _______ _______ _____ _____    ______ ____

> <TORSDO>
F 3

> <grid_id>
p38-prepared

> <grid_path>
/projects/mai/users/kmzp800_harry/pmx_colab/docking_jobs/p38/vina_docking/input_files/p38_vina.pdbqt

> <grid_filename>
p38_vina.pdbqt

> <docking_score>
-8.932

> <compound_name>
lig_p38a_2ee

> <index_string>
33:0:0

> <s_m_Source_Path>
/projects/mai/users/kmzp800_harry/pmx_colab/docking_jobs/p38/gmx_prep

> <s_m_Source_File>
prepared_vina_naive_confs.sdf

> <i_m_Source_File_Index>
34

> <s_m_entry_id>
1387

> <s_m_Source_Path>
/projects/mai/users/kmzp800_harry/pmx_colab/docking_jobs/p38

> <s_m_Source_File>
p38_confs_vina_naive.sdf

> <i_m_Source_File_Index>
34

$$$$
