lig_p38a_2l
                    3D
 Schrodinger Suite 2021-4.
 49 52  0  0  1  0            999 V2000
   32.7387   34.7026   14.3881 F   0  0  0  0  0  0
   33.4630   34.9187   15.5106 C   0  0  0  0  0  0
   34.8622   34.9194   15.4891 C   0  0  0  0  0  0
   35.6086   35.1494   16.6513 C   0  0  0  0  0  0
   36.9590   35.2036   16.5722 F   0  0  0  0  0  0
   34.9521   35.2288   17.8949 C   0  0  0  0  0  0
   33.5398   35.2272   17.9228 C   0  0  0  0  0  0
   32.8173   35.1493   16.7236 C   0  0  0  0  0  0
   35.7082   35.2352   19.0387 O   0  0  0  0  0  0
   35.1804   35.8263   20.1455 C   0  0  0  0  0  0
   35.2624   37.1625   20.2657 C   0  0  0  0  0  0
   34.5521   34.9935   21.1725 C   0  0  0  0  0  0
   34.3749   33.7921   20.9847 O   0  0  0  0  0  0
   34.1675   35.6214   22.3249 N   0  0  0  0  0  0
   33.6286   34.8062   23.4313 C   0  0  0  0  0  0
   34.7419   34.3521   24.3891 C   0  0  0  0  0  0
   34.2659   37.0433   22.5147 C   0  0  0  0  0  0
   34.7898   37.8306   21.4685 C   0  0  0  0  0  0
   33.8822   37.6436   23.6612 N   0  0  0  0  0  0
   34.0049   38.9651   23.7629 C   0  0  0  0  0  0
   34.4593   39.7933   22.8251 N   0  0  0  0  0  0
   34.8540   39.2236   21.6677 C   0  0  0  0  0  0
   33.6243   39.5490   24.9532 N   0  0  0  0  0  0
   33.0491   38.8523   26.0985 C   0  0  0  0  0  0
   33.2536   39.6651   27.3849 C   0  0  0  0  0  0
   32.6004   38.9489   28.5756 C   0  0  0  0  0  0
   31.2157   38.7489   28.3186 O   0  0  0  0  0  0
   30.9652   37.9239   27.1864 C   0  0  0  0  0  0
   31.5446   38.5786   25.9195 C   0  0  0  0  0  0
   35.3522   34.7494   14.5569 H   0  0  0  0  0  0
   32.9844   35.2849   18.8469 H   0  0  0  0  0  0
   31.7407   35.1522   16.7606 H   0  0  0  0  0  0
   35.7294   37.7619   19.4973 H   0  0  0  0  0  0
   32.8729   35.3612   23.9875 H   0  0  0  0  0  0
   33.0876   33.9329   23.0629 H   0  0  0  0  0  0
   34.3285   33.7654   25.2108 H   0  0  0  0  0  0
   35.4783   33.7281   23.8812 H   0  0  0  0  0  0
   35.2660   35.2030   24.8251 H   0  0  0  0  0  0
   35.2402   39.8826   20.9059 H   0  0  0  0  0  0
   33.7510   40.5504   25.0409 H   0  0  0  0  0  0
   33.5700   37.9011   26.2188 H   0  0  0  0  0  0
   34.3164   39.8123   27.5750 H   0  0  0  0  0  0
   32.8112   40.6586   27.2830 H   0  0  0  0  0  0
   33.0859   37.9912   28.7690 H   0  0  0  0  0  0
   32.7036   39.5507   29.4789 H   0  0  0  0  0  0
   31.3896   36.9315   27.3453 H   0  0  0  0  0  0
   29.8879   37.7933   27.0894 H   0  0  0  0  0  0
   31.0155   39.5135   25.7292 H   0  0  0  0  0  0
   31.3697   37.9346   25.0569 H   0  0  0  0  0  0
  1  2  1  0  0  0
  2  8  1  0  0  0
  2  3  2  0  0  0
  3  4  1  0  0  0
  3 30  1  0  0  0
  4  5  1  0  0  0
  4  6  2  0  0  0
  6  7  1  0  0  0
  6  9  1  0  0  0
  7  8  2  0  0  0
  7 31  1  0  0  0
  8 32  1  0  0  0
  9 10  1  0  0  0
 10 11  2  0  0  0
 10 12  1  0  0  0
 11 18  1  0  0  0
 11 33  1  0  0  0
 12 13  2  0  0  0
 12 14  1  0  0  0
 14 15  1  0  0  0
 14 17  1  0  0  0
 15 16  1  0  0  0
 15 34  1  0  0  0
 15 35  1  0  0  0
 16 36  1  0  0  0
 16 37  1  0  0  0
 16 38  1  0  0  0
 17 18  1  0  0  0
 17 19  2  0  0  0
 18 22  2  0  0  0
 19 20  1  0  0  0
 20 21  2  0  0  0
 20 23  1  0  0  0
 21 22  1  0  0  0
 22 39  1  0  0  0
 23 24  1  0  0  0
 23 40  1  0  0  0
 24 29  1  0  0  0
 24 25  1  0  0  0
 24 41  1  0  0  0
 25 26  1  0  0  0
 25 42  1  0  0  0
 25 43  1  0  0  0
 26 27  1  0  0  0
 26 44  1  0  0  0
 26 45  1  0  0  0
 27 28  1  0  0  0
 28 29  1  0  0  0
 28 46  1  0  0  0
 28 47  1  0  0  0
 29 48  1  0  0  0
 29 49  1  0  0  0
M  END
> <s_m_entry_id>
272

> <i_f3d_flags>
0

> <r_lp_tautomer_probability>
1

> <r_epik_Ionization_Penalty>
  0.0000

> <r_epik_State_Penalty>
  0.0000

> <i_epik_Tot_Q>
0

> <s_m_job_name>
glide-dock_SP_p38_core_cons_top_1

> <r_i_docking_score>
-6.53416167648878

> <r_i_glide_gscore>
-6.53416167648878

> <r_i_glide_emodel>
-47.0861744283561

$$$$
lig_p38a_3fmh
                    3D
 Schrodinger Suite 2021-4.
 46 49  0  0  1  0            999 V2000
   32.7433   34.6893   14.3820 F   0  0  0  0  0  0
   33.4615   34.9127   15.5077 C   0  0  0  0  0  0
   34.8605   34.9131   15.4891 C   0  0  0  0  0  0
   35.6080   35.1493   16.6483 C   0  0  0  0  0  0
   36.9593   35.1713   16.5710 F   0  0  0  0  0  0
   34.9497   35.2367   17.8895 C   0  0  0  0  0  0
   33.5375   35.2414   17.9165 C   0  0  0  0  0  0
   32.8144   35.1493   16.7183 C   0  0  0  0  0  0
   35.7037   35.2326   19.0324 O   0  0  0  0  0  0
   35.1812   35.8274   20.1391 C   0  0  0  0  0  0
   34.5521   34.9991   21.1717 C   0  0  0  0  0  0
   34.3017   33.8125   20.9663 O   0  0  0  0  0  0
   34.2461   35.6207   22.3471 N   0  0  0  0  0  0
   33.7149   34.8186   23.4607 C   0  0  0  0  0  0
   35.2753   37.1606   20.2604 C   0  0  0  0  0  0
   34.8311   37.8288   21.4697 C   0  0  0  0  0  0
   34.3431   37.0411   22.5316 C   0  0  0  0  0  0
   34.8825   39.2232   21.6556 C   0  0  0  0  0  0
   34.5114   39.7972   22.8179 N   0  0  0  0  0  0
   34.0687   38.9679   23.7637 C   0  0  0  0  0  0
   33.9733   37.6432   23.6800 N   0  0  0  0  0  0
   33.6529   39.5547   24.9375 N   0  0  0  0  0  0
   32.6349   38.9952   25.8191 C   0  0  2  0  0  0
   31.2485   39.0906   25.1456 C   0  0  0  0  0  0
   32.6861   39.7146   27.1865 C   0  0  0  0  0  0
   32.1521   38.9280   28.2882 N   0  0  3  0  0  0
   30.9372   38.3493   28.2722 N   0  0  0  0  0  0
   30.9144   37.8281   29.4865 C   0  0  0  0  0  0
   32.0396   38.0755   30.2159 N   0  0  0  0  0  0
   32.8135   38.7801   29.4548 N   0  0  0  0  0  0
   32.8786   37.9443   25.9831 H   0  0  0  0  0  0
   35.3521   34.7306   14.5593 H   0  0  0  0  0  0
   32.9814   35.3075   18.8396 H   0  0  0  0  0  0
   31.7380   35.1493   16.7541 H   0  0  0  0  0  0
   33.9801   33.7611   23.4045 H   0  0  0  0  0  0
   34.0972   35.1697   24.4198 H   0  0  0  0  0  0
   32.6274   34.8914   23.4854 H   0  0  0  0  0  0
   35.7441   37.7557   19.4891 H   0  0  0  0  0  0
   35.2490   39.8794   20.8813 H   0  0  0  0  0  0
   33.7727   40.5588   24.9984 H   0  0  0  0  0  0
   30.4644   38.6305   25.7445 H   0  0  0  0  0  0
   30.9607   40.1282   24.9732 H   0  0  0  0  0  0
   31.2400   38.5818   24.1810 H   0  0  0  0  0  0
   32.1561   40.6669   27.1462 H   0  0  0  0  0  0
   33.7216   39.9565   27.4344 H   0  0  0  0  0  0
   30.0696   37.2662   29.8578 H   0  0  0  0  0  0
  1  2  1  0  0  0
  2  8  1  0  0  0
  2  3  2  0  0  0
  3  4  1  0  0  0
  3 32  1  0  0  0
  4  5  1  0  0  0
  4  6  2  0  0  0
  6  7  1  0  0  0
  6  9  1  0  0  0
  7  8  2  0  0  0
  7 33  1  0  0  0
  8 34  1  0  0  0
  9 10  1  0  0  0
 10 11  1  0  0  0
 10 15  2  0  0  0
 11 12  2  0  0  0
 11 13  1  0  0  0
 13 17  1  0  0  0
 13 14  1  0  0  0
 14 35  1  0  0  0
 14 36  1  0  0  0
 14 37  1  0  0  0
 15 16  1  0  0  0
 15 38  1  0  0  0
 16 17  2  0  0  0
 16 18  1  0  0  0
 17 21  1  0  0  0
 18 19  2  0  0  0
 18 39  1  0  0  0
 19 20  1  0  0  0
 20 21  2  0  0  0
 20 22  1  0  0  0
 22 23  1  0  0  0
 22 40  1  0  0  0
 23 31  1  0  0  0
 23 24  1  0  0  0
 23 25  1  0  0  0
 24 41  1  0  0  0
 24 42  1  0  0  0
 24 43  1  0  0  0
 25 26  1  0  0  0
 25 44  1  0  0  0
 25 45  1  0  0  0
 26 30  1  0  0  0
 26 27  1  0  0  0
 27 28  2  0  0  0
 28 29  1  0  0  0
 28 46  1  0  0  0
 29 30  2  0  0  0
M  END
> <s_m_entry_id>
263

> <i_f3d_flags>
0

> <r_lp_tautomer_probability>
1

> <r_epik_Ionization_Penalty>
  0.0000

> <r_epik_State_Penalty>
  0.0000

> <i_epik_Tot_Q>
0

> <s_m_job_name>
glide-dock_SP_p38_core_cons_top_1

> <r_i_docking_score>
-6.73541100248141

> <r_i_glide_gscore>
-6.73541100248141

> <r_i_glide_emodel>
-52.0847048077371

$$$$
lig_p38a_3fln
                    3D
 Schrodinger Suite 2021-4.
 46 49  0  0  1  0            999 V2000
   32.7304   34.6266   14.3985 F   0  0  0  0  0  0
   33.4542   34.8795   15.5152 C   0  0  0  0  0  0
   34.8539   34.8867   15.4891 C   0  0  0  0  0  0
   35.5994   35.1485   16.6461 C   0  0  0  0  0  0
   36.9490   35.2107   16.5660 F   0  0  0  0  0  0
   34.9447   35.2360   17.8889 C   0  0  0  0  0  0
   33.5333   35.2486   17.9200 C   0  0  0  0  0  0
   32.8094   35.1495   16.7222 C   0  0  0  0  0  0
   35.7003   35.2302   19.0321 O   0  0  0  0  0  0
   35.1740   35.8221   20.1408 C   0  0  0  0  0  0
   35.2727   37.1533   20.2627 C   0  0  0  0  0  0
   34.5494   34.9919   21.1750 C   0  0  0  0  0  0
   34.3169   33.8020   20.9731 O   0  0  0  0  0  0
   34.2204   35.6205   22.3420 N   0  0  0  0  0  0
   33.7028   34.8372   23.4742 C   0  0  0  0  0  0
   34.3150   37.0398   22.5271 C   0  0  0  0  0  0
   34.8179   37.8272   21.4714 C   0  0  0  0  0  0
   33.9363   37.6365   23.6772 N   0  0  0  0  0  0
   34.0388   38.9600   23.7683 C   0  0  0  0  0  0
   34.4787   39.7897   22.8244 N   0  0  0  0  0  0
   34.8670   39.2220   21.6637 C   0  0  0  0  0  0
   33.6677   39.5510   24.9535 N   0  0  0  0  0  0
   33.1676   38.8718   26.1377 C   0  0  0  0  0  0
   33.2735   39.7940   27.3604 C   0  0  0  0  0  0
   32.6916   39.1097   28.6039 C   0  0  0  0  0  0
   31.3400   38.7376   28.3576 O   0  0  0  0  0  0
   31.1891   37.8141   27.2833 C   0  0  0  0  0  0
   31.7017   38.4386   25.9767 C   0  0  0  0  0  0
   35.3520   34.6979   14.5631 H   0  0  0  0  0  0
   32.9828   35.3285   18.8449 H   0  0  0  0  0  0
   31.7322   35.1494   16.7617 H   0  0  0  0  0  0
   35.7400   37.7544   19.4938 H   0  0  0  0  0  0
   32.6923   35.1633   23.7249 H   0  0  0  0  0  0
   33.6666   33.7597   23.3093 H   0  0  0  0  0  0
   34.3297   34.9997   24.3523 H   0  0  0  0  0  0
   35.2350   39.8830   20.8935 H   0  0  0  0  0  0
   33.7781   40.5561   25.0232 H   0  0  0  0  0  0
   33.7869   37.9903   26.3120 H   0  0  0  0  0  0
   34.3120   40.0766   27.5380 H   0  0  0  0  0  0
   32.7220   40.7178   27.1780 H   0  0  0  0  0  0
   33.2833   38.2360   28.8816 H   0  0  0  0  0  0
   32.7167   39.7969   29.4501 H   0  0  0  0  0  0
   31.7211   36.8875   27.5044 H   0  0  0  0  0  0
   30.1344   37.5588   27.1850 H   0  0  0  0  0  0
   31.0821   39.2993   25.7192 H   0  0  0  0  0  0
   31.5989   37.7235   25.1601 H   0  0  0  0  0  0
  1  2  1  0  0  0
  2  8  1  0  0  0
  2  3  2  0  0  0
  3  4  1  0  0  0
  3 29  1  0  0  0
  4  5  1  0  0  0
  4  6  2  0  0  0
  6  7  1  0  0  0
  6  9  1  0  0  0
  7  8  2  0  0  0
  7 30  1  0  0  0
  8 31  1  0  0  0
  9 10  1  0  0  0
 10 11  2  0  0  0
 10 12  1  0  0  0
 11 17  1  0  0  0
 11 32  1  0  0  0
 12 13  2  0  0  0
 12 14  1  0  0  0
 14 15  1  0  0  0
 14 16  1  0  0  0
 15 33  1  0  0  0
 15 34  1  0  0  0
 15 35  1  0  0  0
 16 17  1  0  0  0
 16 18  2  0  0  0
 17 21  2  0  0  0
 18 19  1  0  0  0
 19 20  2  0  0  0
 19 22  1  0  0  0
 20 21  1  0  0  0
 21 36  1  0  0  0
 22 23  1  0  0  0
 22 37  1  0  0  0
 23 28  1  0  0  0
 23 24  1  0  0  0
 23 38  1  0  0  0
 24 25  1  0  0  0
 24 39  1  0  0  0
 24 40  1  0  0  0
 25 26  1  0  0  0
 25 41  1  0  0  0
 25 42  1  0  0  0
 26 27  1  0  0  0
 27 28  1  0  0  0
 27 43  1  0  0  0
 27 44  1  0  0  0
 28 45  1  0  0  0
 28 46  1  0  0  0
M  END
> <s_m_entry_id>
274

> <i_f3d_flags>
0

> <r_lp_tautomer_probability>
1

> <r_epik_Ionization_Penalty>
  0.0000

> <r_epik_State_Penalty>
  0.0000

> <i_epik_Tot_Q>
0

> <s_m_job_name>
glide-dock_SP_p38_core_cons_top_1

> <r_i_docking_score>
-6.48261872379036

> <r_i_glide_gscore>
-6.48261872379036

> <r_i_glide_emodel>
-42.468077691151

$$$$
lig_p38a_2j
                    3D
 Schrodinger Suite 2021-4.
 48 51  0  0  1  0            999 V2000
   36.6789   34.9581   16.1987 F   0  0  0  0  0  0
   35.3339   34.9965   16.3529 C   0  0  0  0  0  0
   34.5112   34.7439   15.2452 C   0  0  0  0  0  0
   33.1160   34.8214   15.3633 C   0  0  0  0  0  0
   32.3194   34.6143   14.2889 F   0  0  0  0  0  0
   32.5524   35.1494   16.6023 C   0  0  0  0  0  0
   33.3584   35.2385   17.7525 C   0  0  0  0  0  0
   34.7602   35.1600   17.6343 C   0  0  0  0  0  0
   35.6506   35.1484   18.8642 C   0  0  0  0  0  0
   35.1430   35.8212   20.1212 C   0  0  0  0  0  0
   35.2689   37.1524   20.2704 C   0  0  0  0  0  0
   34.5067   34.9990   21.1644 C   0  0  0  0  0  0
   34.2107   33.8193   20.9684 O   0  0  0  0  0  0
   34.2310   35.6141   22.3507 N   0  0  0  0  0  0
   33.7200   34.8037   23.4690 C   0  0  0  0  0  0
   34.3129   37.0331   22.5362 C   0  0  0  0  0  0
   34.8179   37.8188   21.4811 C   0  0  0  0  0  0
   33.9131   37.6325   23.6783 N   0  0  0  0  0  0
   34.0078   38.9569   23.7666 C   0  0  0  0  0  0
   34.4576   39.7845   22.8243 N   0  0  0  0  0  0
   34.8566   39.2138   21.6680 C   0  0  0  0  0  0
   33.6037   39.5495   24.9436 N   0  0  0  0  0  0
   33.0545   38.8728   26.1121 C   0  0  0  0  0  0
   33.1002   39.8030   27.3348 C   0  0  0  0  0  0
   32.4757   39.1191   28.5594 C   0  0  0  0  0  0
   31.1390   38.7323   28.2640 O   0  0  0  0  0  0
   31.0465   37.7940   27.1975 C   0  0  0  0  0  0
   31.5992   38.4154   25.9022 C   0  0  0  0  0  0
   34.9516   34.5122   14.2892 H   0  0  0  0  0  0
   31.4827   35.2198   16.7060 H   0  0  0  0  0  0
   32.8814   35.3679   18.7127 H   0  0  0  0  0  0
   35.7521   34.0981   19.0991 H   0  0  0  0  0  0
   36.6367   35.5493   18.6245 H   0  0  0  0  0  0
   35.7291   37.7568   19.5013 H   0  0  0  0  0  0
   34.0636   35.1849   24.4312 H   0  0  0  0  0  0
   32.6296   34.8190   23.4722 H   0  0  0  0  0  0
   34.0426   33.7616   23.4321 H   0  0  0  0  0  0
   35.2271   39.8741   20.8992 H   0  0  0  0  0  0
   33.7512   40.5488   25.0275 H   0  0  0  0  0  0
   33.6734   37.9978   26.3179 H   0  0  0  0  0  0
   34.1277   40.0941   27.5554 H   0  0  0  0  0  0
   32.5521   40.7238   27.1258 H   0  0  0  0  0  0
   33.0611   38.2487   28.8598 H   0  0  0  0  0  0
   32.4623   39.8049   29.4072 H   0  0  0  0  0  0
   31.5881   36.8814   27.4518 H   0  0  0  0  0  0
   30.0007   37.5138   27.0744 H   0  0  0  0  0  0
   30.9763   39.2640   25.6151 H   0  0  0  0  0  0
   31.5339   37.6894   25.0911 H   0  0  0  0  0  0
  1  2  1  0  0  0
  2  8  1  0  0  0
  2  3  2  0  0  0
  3  4  1  0  0  0
  3 29  1  0  0  0
  4  5  1  0  0  0
  4  6  2  0  0  0
  6  7  1  0  0  0
  6 30  1  0  0  0
  7  8  2  0  0  0
  7 31  1  0  0  0
  8  9  1  0  0  0
  9 10  1  0  0  0
  9 32  1  0  0  0
  9 33  1  0  0  0
 10 11  2  0  0  0
 10 12  1  0  0  0
 11 17  1  0  0  0
 11 34  1  0  0  0
 12 13  2  0  0  0
 12 14  1  0  0  0
 14 15  1  0  0  0
 14 16  1  0  0  0
 15 35  1  0  0  0
 15 36  1  0  0  0
 15 37  1  0  0  0
 16 17  1  0  0  0
 16 18  2  0  0  0
 17 21  2  0  0  0
 18 19  1  0  0  0
 19 20  2  0  0  0
 19 22  1  0  0  0
 20 21  1  0  0  0
 21 38  1  0  0  0
 22 23  1  0  0  0
 22 39  1  0  0  0
 23 28  1  0  0  0
 23 24  1  0  0  0
 23 40  1  0  0  0
 24 25  1  0  0  0
 24 41  1  0  0  0
 24 42  1  0  0  0
 25 26  1  0  0  0
 25 43  1  0  0  0
 25 44  1  0  0  0
 26 27  1  0  0  0
 27 28  1  0  0  0
 27 45  1  0  0  0
 27 46  1  0  0  0
 28 47  1  0  0  0
 28 48  1  0  0  0
M  END
> <s_m_entry_id>
279

> <i_f3d_flags>
0

> <r_lp_tautomer_probability>
1

> <r_epik_Ionization_Penalty>
  0.0000

> <r_epik_State_Penalty>
  0.0000

> <i_epik_Tot_Q>
0

> <s_m_job_name>
glide-dock_SP_p38_core_cons_top_1

> <r_i_docking_score>
-6.29978683215598

> <r_i_glide_gscore>
-6.29978683215598

> <r_i_glide_emodel>
-33.2481827870287

$$$$
lig_p38a_2z
                    3D
 Schrodinger Suite 2021-4.
 45 47  0  0  1  0            999 V2000
   32.7421   34.7013   14.3845 F   0  0  0  0  0  0
   33.4627   34.9178   15.5100 C   0  0  0  0  0  0
   34.8616   34.9187   15.4891 C   0  0  0  0  0  0
   35.6090   35.1493   16.6504 C   0  0  0  0  0  0
   36.9594   35.1978   16.5714 F   0  0  0  0  0  0
   34.9521   35.2308   17.8936 C   0  0  0  0  0  0
   33.5402   35.2332   17.9213 C   0  0  0  0  0  0
   32.8168   35.1493   16.7226 C   0  0  0  0  0  0
   35.7085   35.2309   19.0363 O   0  0  0  0  0  0
   35.1850   35.8255   20.1436 C   0  0  0  0  0  0
   35.2726   37.1615   20.2610 C   0  0  0  0  0  0
   34.5521   34.9977   21.1726 C   0  0  0  0  0  0
   34.3390   33.8028   20.9767 O   0  0  0  0  0  0
   34.1880   35.6293   22.3267 N   0  0  0  0  0  0
   33.6175   34.8413   23.4313 C   0  0  0  0  0  0
   34.2780   37.0507   22.5072 C   0  0  0  0  0  0
   34.8021   37.8355   21.4627 C   0  0  0  0  0  0
   33.8822   37.6538   23.6462 N   0  0  0  0  0  0
   33.9950   38.9728   23.7605 C   0  0  0  0  0  0
   34.4639   39.7988   22.8254 N   0  0  0  0  0  0
   34.8609   39.2284   21.6652 C   0  0  0  0  0  0
   33.6141   39.5493   24.9623 N   0  0  0  0  0  0
   33.0935   38.8904   26.1688 C   0  0  0  0  0  0
   32.8409   39.9951   27.2125 C   0  0  0  0  0  0
   31.7400   38.2013   25.8769 C   0  0  0  0  0  0
   34.1347   37.8841   26.7375 C   0  0  0  0  0  0
   33.7243   37.3170   27.9663 O   0  0  0  0  0  0
   35.3521   34.7471   14.5569 H   0  0  0  0  0  0
   32.9847   35.2951   18.8450 H   0  0  0  0  0  0
   31.7403   35.1493   16.7589 H   0  0  0  0  0  0
   35.7416   37.7571   19.4907 H   0  0  0  0  0  0
   33.7722   33.7646   23.3439 H   0  0  0  0  0  0
   34.0636   35.1325   24.3829 H   0  0  0  0  0  0
   32.5432   35.0180   23.4970 H   0  0  0  0  0  0
   35.2539   39.8879   20.9072 H   0  0  0  0  0  0
   33.7523   40.5497   25.0446 H   0  0  0  0  0  0
   32.4027   39.5989   28.1293 H   0  0  0  0  0  0
   33.7650   40.5043   27.4892 H   0  0  0  0  0  0
   32.1520   40.7491   26.8308 H   0  0  0  0  0  0
   31.2868   37.8190   26.7922 H   0  0  0  0  0  0
   31.0270   38.8963   25.4317 H   0  0  0  0  0  0
   31.8394   37.3522   25.2019 H   0  0  0  0  0  0
   35.0961   38.3767   26.8906 H   0  0  0  0  0  0
   34.3150   37.0553   26.0559 H   0  0  0  0  0  0
   34.3472   36.6490   28.2118 H   0  0  0  0  0  0
  1  2  1  0  0  0
  2  8  1  0  0  0
  2  3  2  0  0  0
  3  4  1  0  0  0
  3 28  1  0  0  0
  4  5  1  0  0  0
  4  6  2  0  0  0
  6  7  1  0  0  0
  6  9  1  0  0  0
  7  8  2  0  0  0
  7 29  1  0  0  0
  8 30  1  0  0  0
  9 10  1  0  0  0
 10 11  2  0  0  0
 10 12  1  0  0  0
 11 17  1  0  0  0
 11 31  1  0  0  0
 12 13  2  0  0  0
 12 14  1  0  0  0
 14 15  1  0  0  0
 14 16  1  0  0  0
 15 32  1  0  0  0
 15 33  1  0  0  0
 15 34  1  0  0  0
 16 17  1  0  0  0
 16 18  2  0  0  0
 17 21  2  0  0  0
 18 19  1  0  0  0
 19 20  2  0  0  0
 19 22  1  0  0  0
 20 21  1  0  0  0
 21 35  1  0  0  0
 22 23  1  0  0  0
 22 36  1  0  0  0
 23 24  1  0  0  0
 23 25  1  0  0  0
 23 26  1  0  0  0
 24 37  1  0  0  0
 24 38  1  0  0  0
 24 39  1  0  0  0
 25 40  1  0  0  0
 25 41  1  0  0  0
 25 42  1  0  0  0
 26 27  1  0  0  0
 26 43  1  0  0  0
 26 44  1  0  0  0
 27 45  1  0  0  0
M  END
> <s_m_entry_id>
284

> <i_f3d_flags>
0

> <r_lp_tautomer_probability>
1

> <r_epik_Ionization_Penalty>
  0.0000

> <r_epik_State_Penalty>
  0.0000

> <i_epik_Tot_Q>
0

> <s_m_job_name>
glide-dock_SP_p38_core_cons_top_1

> <r_i_docking_score>
-6.1596340430015

> <r_i_glide_gscore>
-6.1596340430015

> <r_i_glide_emodel>
-42.9877497258487

$$$$
lig_p38a_3fly
                    3D
 Schrodinger Suite 2021-4.
 41 43  0  0  1  0            999 V2000
   32.2349   39.7930   26.9713 C   0  0  0  0  0  0
   33.0073   38.8268   26.0647 C   0  0  0  0  0  0
   34.0551   38.0288   26.8614 C   0  0  0  0  0  0
   33.6139   39.5493   24.9524 N   0  0  0  0  0  0
   34.0011   38.9687   23.7608 C   0  0  0  0  0  0
   33.8819   37.6472   23.6522 N   0  0  0  0  0  0
   34.4683   39.7958   22.8258 N   0  0  0  0  0  0
   34.8609   39.2270   21.6657 C   0  0  0  0  0  0
   34.8038   37.8327   21.4678 C   0  0  0  0  0  0
   34.2839   37.0466   22.5143 C   0  0  0  0  0  0
   35.2719   37.1594   20.2638 C   0  0  0  0  0  0
   35.1798   35.8264   20.1437 C   0  0  0  0  0  0
   34.5522   34.9953   21.1759 C   0  0  0  0  0  0
   34.3360   33.8020   20.9805 O   0  0  0  0  0  0
   34.2041   35.6251   22.3363 N   0  0  0  0  0  0
   33.6838   34.8375   23.4655 C   0  0  0  0  0  0
   35.7112   35.2332   19.0372 O   0  0  0  0  0  0
   34.9616   35.2301   17.8886 C   0  0  0  0  0  0
   33.5501   35.2236   17.9117 C   0  0  0  0  0  0
   32.8305   35.1495   16.7112 C   0  0  0  0  0  0
   35.6212   35.1493   16.6437 C   0  0  0  0  0  0
   36.9720   35.2100   16.5568 F   0  0  0  0  0  0
   34.8731   34.8878   15.4891 C   0  0  0  0  0  0
   33.4769   34.8961   15.5056 C   0  0  0  0  0  0
   32.7570   34.6726   14.3812 F   0  0  0  0  0  0
   31.7302   39.2538   27.7730 H   0  0  0  0  0  0
   31.4739   40.3344   26.4086 H   0  0  0  0  0  0
   32.8970   40.5275   27.4317 H   0  0  0  0  0  0
   32.2841   38.1225   25.6491 H   0  0  0  0  0  0
   33.5851   37.4669   27.6685 H   0  0  0  0  0  0
   34.5778   37.3062   26.2336 H   0  0  0  0  0  0
   34.8053   38.6854   27.3025 H   0  0  0  0  0  0
   33.7510   40.5502   25.0595 H   0  0  0  0  0  0
   35.2440   39.8849   20.9027 H   0  0  0  0  0  0
   35.7449   37.7517   19.4933 H   0  0  0  0  0  0
   33.7493   33.7562   23.3396 H   0  0  0  0  0  0
   34.2385   35.0756   24.3746 H   0  0  0  0  0  0
   32.6364   35.0856   23.6416 H   0  0  0  0  0  0
   32.9904   35.2788   18.8318 H   0  0  0  0  0  0
   31.7521   35.1610   16.7388 H   0  0  0  0  0  0
   35.3517   34.6862   14.5576 H   0  0  0  0  0  0
  1  2  1  0  0  0
  1 26  1  0  0  0
  1 27  1  0  0  0
  1 28  1  0  0  0
  2  3  1  0  0  0
  2  4  1  0  0  0
  2 29  1  0  0  0
  3 30  1  0  0  0
  3 31  1  0  0  0
  3 32  1  0  0  0
  4  5  1  0  0  0
  4 33  1  0  0  0
  5  6  1  0  0  0
  5  7  2  0  0  0
  6 10  2  0  0  0
  7  8  1  0  0  0
  8  9  2  0  0  0
  8 34  1  0  0  0
  9 10  1  0  0  0
  9 11  1  0  0  0
 10 15  1  0  0  0
 11 12  2  0  0  0
 11 35  1  0  0  0
 12 13  1  0  0  0
 12 17  1  0  0  0
 13 14  2  0  0  0
 13 15  1  0  0  0
 15 16  1  0  0  0
 16 36  1  0  0  0
 16 37  1  0  0  0
 16 38  1  0  0  0
 17 18  1  0  0  0
 18 19  1  0  0  0
 18 21  2  0  0  0
 19 20  2  0  0  0
 19 39  1  0  0  0
 20 24  1  0  0  0
 20 40  1  0  0  0
 21 22  1  0  0  0
 21 23  1  0  0  0
 23 24  2  0  0  0
 23 41  1  0  0  0
 24 25  1  0  0  0
M  END
> <s_m_entry_id>
275

> <i_f3d_flags>
0

> <r_lp_tautomer_probability>
1

> <r_epik_Ionization_Penalty>
  0.0000

> <r_epik_State_Penalty>
  0.0000

> <i_epik_Tot_Q>
0

> <s_m_job_name>
glide-dock_SP_p38_core_cons_top_1

> <r_i_docking_score>
-6.47256185810924

> <r_i_glide_gscore>
-6.47256185810924

> <r_i_glide_emodel>
-36.3697211480506

$$$$
lig_p38a_2gg
                    3D
 Schrodinger Suite 2021-4.
 48 51  0  0  1  0            999 V2000
   32.7496   34.6845   14.3692 F   0  0  0  0  0  0
   33.4639   34.9080   15.4996 C   0  0  0  0  0  0
   34.8636   34.9112   15.4889 C   0  0  0  0  0  0
   35.6069   35.1493   16.6503 C   0  0  0  0  0  0
   36.9568   35.2019   16.5776 F   0  0  0  0  0  0
   34.9459   35.2355   17.8905 C   0  0  0  0  0  0
   33.5328   35.2407   17.9101 C   0  0  0  0  0  0
   32.8133   35.1494   16.7079 C   0  0  0  0  0  0
   35.7008   35.2350   19.0345 O   0  0  0  0  0  0
   35.1782   35.8269   20.1435 C   0  0  0  0  0  0
   35.2680   37.1599   20.2658 C   0  0  0  0  0  0
   34.5478   34.9960   21.1714 C   0  0  0  0  0  0
   34.3243   33.8035   20.9692 O   0  0  0  0  0  0
   34.2020   35.6189   22.3346 N   0  0  0  0  0  0
   33.6509   34.8168   23.4397 C   0  0  0  0  0  0
   34.2822   37.0396   22.5198 C   0  0  0  0  0  0
   34.7967   37.8285   21.4692 C   0  0  0  0  0  0
   33.8829   37.6386   23.6624 N   0  0  0  0  0  0
   33.9986   38.9617   23.7612 C   0  0  0  0  0  0
   34.4507   39.7903   22.8205 N   0  0  0  0  0  0
   34.8448   39.2209   21.6601 C   0  0  0  0  0  0
   33.6518   39.5500   24.9637 N   0  0  0  0  0  0
   33.3770   38.8266   26.2006 C   0  0  0  0  0  0
   34.6685   38.1944   26.7717 C   0  0  0  0  0  0
   34.4067   37.3053   27.9935 C   0  0  0  0  0  0
   32.6848   39.7656   27.2125 C   0  0  0  0  0  0
   32.2321   39.0491   28.4912 C   0  0  0  0  0  0
   33.6650   38.2909   29.3549 S   0  0  0  0  0  0
   33.1676   37.3754   30.3942 O   0  0  0  0  0  0
   34.6107   39.3651   29.6945 O   0  0  0  0  0  0
   35.3521   34.7301   14.5582 H   0  0  0  0  0  0
   32.9767   35.3059   18.8314 H   0  0  0  0  0  0
   31.7360   35.1502   16.7398 H   0  0  0  0  0  0
   35.7369   37.7594   19.4975 H   0  0  0  0  0  0
   32.5661   34.9240   23.4723 H   0  0  0  0  0  0
   33.8825   33.7509   23.3761 H   0  0  0  0  0  0
   34.0460   35.1461   24.4019 H   0  0  0  0  0  0
   35.2295   39.8773   20.8940 H   0  0  0  0  0  0
   33.7855   40.5520   25.0426 H   0  0  0  0  0  0
   32.6775   38.0265   25.9580 H   0  0  0  0  0  0
   35.1615   37.5861   26.0129 H   0  0  0  0  0  0
   35.3786   38.9796   27.0368 H   0  0  0  0  0  0
   33.7208   36.4953   27.7491 H   0  0  0  0  0  0
   35.3300   36.8578   28.3636 H   0  0  0  0  0  0
   33.3568   40.5806   27.4880 H   0  0  0  0  0  0
   31.8162   40.2324   26.7441 H   0  0  0  0  0  0
   31.5142   38.2613   28.2676 H   0  0  0  0  0  0
   31.7582   39.7429   29.1866 H   0  0  0  0  0  0
  1  2  1  0  0  0
  2  8  1  0  0  0
  2  3  2  0  0  0
  3  4  1  0  0  0
  3 31  1  0  0  0
  4  5  1  0  0  0
  4  6  2  0  0  0
  6  7  1  0  0  0
  6  9  1  0  0  0
  7  8  2  0  0  0
  7 32  1  0  0  0
  8 33  1  0  0  0
  9 10  1  0  0  0
 10 11  2  0  0  0
 10 12  1  0  0  0
 11 17  1  0  0  0
 11 34  1  0  0  0
 12 13  2  0  0  0
 12 14  1  0  0  0
 14 15  1  0  0  0
 14 16  1  0  0  0
 15 35  1  0  0  0
 15 36  1  0  0  0
 15 37  1  0  0  0
 16 17  1  0  0  0
 16 18  2  0  0  0
 17 21  2  0  0  0
 18 19  1  0  0  0
 19 20  2  0  0  0
 19 22  1  0  0  0
 20 21  1  0  0  0
 21 38  1  0  0  0
 22 23  1  0  0  0
 22 39  1  0  0  0
 23 24  1  0  0  0
 23 26  1  0  0  0
 23 40  1  0  0  0
 24 25  1  0  0  0
 24 41  1  0  0  0
 24 42  1  0  0  0
 25 28  1  0  0  0
 25 43  1  0  0  0
 25 44  1  0  0  0
 26 27  1  0  0  0
 26 45  1  0  0  0
 26 46  1  0  0  0
 27 28  1  0  0  0
 27 47  1  0  0  0
 27 48  1  0  0  0
 28 29  2  0  0  0
 28 30  2  0  0  0
M  END
> <s_m_entry_id>
280

> <i_f3d_flags>
0

> <r_lp_tautomer_probability>
1

> <r_epik_Ionization_Penalty>
  0.0000

> <r_epik_State_Penalty>
  0.0000

> <i_epik_Tot_Q>
0

> <s_m_job_name>
glide-dock_SP_p38_core_cons_top_1

> <r_i_docking_score>
-6.27963443991326

> <r_i_glide_gscore>
-6.27963443991326

> <r_i_glide_emodel>
-46.1158927341361

$$$$
lig_p38a_3flq
                    3D
 Schrodinger Suite 2021-4.
 47 49  0  0  1  0            999 V2000
   32.0670   35.7851   28.1966 O   0  0  0  0  0  0
   31.4560   36.7793   27.3032 S   0  0  0  0  0  0
   30.5590   36.3329   26.2275 O   0  0  0  0  0  0
   30.5524   37.9880   28.3413 C   0  0  0  0  0  0
   32.8288   37.7877   26.5711 C   0  0  0  0  0  0
   32.4227   39.0285   25.7202 C   0  0  2  0  0  0
   31.1565   38.8962   24.8484 C   0  0  0  0  0  0
   33.5464   39.5493   24.9303 N   0  0  0  0  0  0
   33.9984   38.9842   23.7473 C   0  0  0  0  0  0
   34.4874   39.8106   22.8190 N   0  0  0  0  0  0
   34.8739   39.2439   21.6479 C   0  0  0  0  0  0
   33.8883   37.6661   23.6376 N   0  0  0  0  0  0
   34.2897   37.0669   22.4999 C   0  0  0  0  0  0
   34.8152   37.8491   21.4506 C   0  0  0  0  0  0
   34.1929   35.6469   22.3313 N   0  0  0  0  0  0
   33.6241   34.8709   23.4451 C   0  0  0  0  0  0
   34.5539   35.0059   21.1842 C   0  0  0  0  0  0
   34.3593   33.8049   21.0065 O   0  0  0  0  0  0
   35.1724   35.8288   20.1408 C   0  0  0  0  0  0
   35.2750   37.1703   20.2450 C   0  0  0  0  0  0
   35.6502   35.2260   19.0243 O   0  0  0  0  0  0
   34.8816   35.2529   17.8900 C   0  0  0  0  0  0
   35.5660   35.1493   16.6648 C   0  0  0  0  0  0
   34.8464   34.8779   15.4900 C   0  0  0  0  0  0
   33.4625   35.2933   17.8866 C   0  0  0  0  0  0
   32.7338   35.4755   19.0134 F   0  0  0  0  0  0
   32.7715   35.1492   16.6764 C   0  0  0  0  0  0
   33.4456   34.8668   15.4891 C   0  0  0  0  0  0
   32.7481   34.6001   14.3608 F   0  0  0  0  0  0
   32.1962   39.8228   26.4349 H   0  0  0  0  0  0
   29.7272   37.4808   28.8416 H   0  0  0  0  0  0
   30.1523   38.7692   27.7075 H   0  0  0  0  0  0
   31.2237   38.4146   29.0844 H   0  0  0  0  0  0
   33.4836   38.0935   27.3847 H   0  0  0  0  0  0
   33.4025   37.0745   25.9856 H   0  0  0  0  0  0
   30.2570   38.7461   25.4424 H   0  0  0  0  0  0
   30.9864   39.8064   24.2737 H   0  0  0  0  0  0
   31.2275   38.0640   24.1481 H   0  0  0  0  0  0
   33.7283   40.5409   25.0417 H   0  0  0  0  0  0
   35.2666   39.9018   20.8877 H   0  0  0  0  0  0
   33.7094   33.7896   23.3381 H   0  0  0  0  0  0
   34.1242   35.1251   24.3796 H   0  0  0  0  0  0
   32.5661   35.1100   23.5597 H   0  0  0  0  0  0
   35.7284   37.7604   19.4616 H   0  0  0  0  0  0
   36.6481   35.1498   16.6463 H   0  0  0  0  0  0
   35.3525   34.6630   14.5752 H   0  0  0  0  0  0
   31.6953   35.1550   16.6895 H   0  0  0  0  0  0
  1  2  2  0  0  0
  2  3  2  0  0  0
  2  4  1  0  0  0
  2  5  1  0  0  0
  4 31  1  0  0  0
  4 32  1  0  0  0
  4 33  1  0  0  0
  5  6  1  0  0  0
  5 34  1  0  0  0
  5 35  1  0  0  0
  6 30  1  0  0  0
  6  7  1  0  0  0
  6  8  1  0  0  0
  7 36  1  0  0  0
  7 37  1  0  0  0
  7 38  1  0  0  0
  8  9  1  0  0  0
  8 39  1  0  0  0
  9 10  1  0  0  0
  9 12  2  0  0  0
 10 11  2  0  0  0
 11 14  1  0  0  0
 11 40  1  0  0  0
 12 13  1  0  0  0
 13 14  2  0  0  0
 13 15  1  0  0  0
 14 20  1  0  0  0
 15 16  1  0  0  0
 15 17  1  0  0  0
 16 41  1  0  0  0
 16 42  1  0  0  0
 16 43  1  0  0  0
 17 18  2  0  0  0
 17 19  1  0  0  0
 19 20  2  0  0  0
 19 21  1  0  0  0
 20 44  1  0  0  0
 21 22  1  0  0  0
 22 23  1  0  0  0
 22 25  2  0  0  0
 23 24  2  0  0  0
 23 45  1  0  0  0
 24 28  1  0  0  0
 24 46  1  0  0  0
 25 26  1  0  0  0
 25 27  1  0  0  0
 27 28  2  0  0  0
 27 47  1  0  0  0
 28 29  1  0  0  0
M  END
> <s_m_entry_id>
281

> <i_f3d_flags>
0

> <r_lp_tautomer_probability>
1

> <r_epik_Ionization_Penalty>
  0.0000

> <r_epik_State_Penalty>
  0.0000

> <i_epik_Tot_Q>
0

> <s_m_job_name>
glide-dock_SP_p38_core_cons_top_1

> <r_i_docking_score>
-6.25269713981658

> <r_i_glide_gscore>
-6.25269713981658

> <r_i_glide_emodel>
-45.7856031251728

$$$$
lig_p38a_2k
                    3D
 Schrodinger Suite 2021-4.
 43 46  0  0  1  0            999 V2000
   38.5521   37.1493   14.9396 F   0  0  0  0  0  0
   37.8296   36.5334   15.9021 C   0  0  0  0  0  0
   36.5025   36.1581   15.6452 C   0  0  0  0  0  0
   35.7091   35.5955   16.6541 C   0  0  0  0  0  0
   34.4637   35.1490   16.3673 F   0  0  0  0  0  0
   36.1735   35.5859   17.9776 C   0  0  0  0  0  0
   37.5161   35.9495   18.2448 C   0  0  0  0  0  0
   38.3639   36.3493   17.1921 C   0  0  0  0  0  0
   35.3520   35.0994   18.9526 O   0  0  0  0  0  0
   35.1267   35.7961   20.1110 C   0  0  0  0  0  0
   35.2488   37.1425   20.2185 C   0  0  0  0  0  0
   34.5398   35.0018   21.1923 C   0  0  0  0  0  0
   34.3060   33.8022   21.0948 O   0  0  0  0  0  0
   34.2316   35.6611   22.3214 N   0  0  0  0  0  0
   34.3361   37.0624   22.5094 C   0  0  0  0  0  0
   34.8405   37.8372   21.4418 C   0  0  0  0  0  0
   33.9494   37.6413   23.6625 N   0  0  0  0  0  0
   34.0547   38.9649   23.7506 C   0  0  0  0  0  0
   34.5033   39.7933   22.7999 N   0  0  0  0  0  0
   34.8914   39.2373   21.6266 C   0  0  0  0  0  0
   33.6700   39.5620   24.9349 N   0  0  0  0  0  0
   33.0553   38.9547   26.1142 C   0  0  0  0  0  0
   31.6731   38.3338   25.8458 C   0  0  0  0  0  0
   31.0937   37.7592   27.1495 C   0  0  0  0  0  0
   32.0065   36.8259   27.7212 O   0  0  0  0  0  0
   33.2526   37.4085   28.0897 C   0  0  0  0  0  0
   33.9665   37.9519   26.8424 C   0  0  0  0  0  0
   33.8322   35.1306   23.0810 H   0  0  0  0  0  0
   36.0617   36.3490   14.6891 H   0  0  0  0  0  0
   37.9054   35.8935   19.2511 H   0  0  0  0  0  0
   39.3834   36.6390   17.4016 H   0  0  0  0  0  0
   35.6062   37.7494   19.4000 H   0  0  0  0  0  0
   35.2525   39.8998   20.8558 H   0  0  0  0  0  0
   33.7932   40.5661   24.9881 H   0  0  0  0  0  0
   32.8957   39.7880   26.8000 H   0  0  0  0  0  0
   31.7429   37.5332   25.1098 H   0  0  0  0  0  0
   30.9926   39.0803   25.4347 H   0  0  0  0  0  0
   30.1528   37.2476   26.9478 H   0  0  0  0  0  0
   30.8748   38.5554   27.8629 H   0  0  0  0  0  0
   33.8681   36.6482   28.5710 H   0  0  0  0  0  0
   33.0932   38.1999   28.8237 H   0  0  0  0  0  0
   34.9052   38.4277   27.1274 H   0  0  0  0  0  0
   34.2236   37.1134   26.1957 H   0  0  0  0  0  0
  1  2  1  0  0  0
  2  8  1  0  0  0
  2  3  2  0  0  0
  3  4  1  0  0  0
  3 29  1  0  0  0
  4  5  1  0  0  0
  4  6  2  0  0  0
  6  7  1  0  0  0
  6  9  1  0  0  0
  7  8  2  0  0  0
  7 30  1  0  0  0
  8 31  1  0  0  0
  9 10  1  0  0  0
 10 11  2  0  0  0
 10 12  1  0  0  0
 11 16  1  0  0  0
 11 32  1  0  0  0
 12 13  2  0  0  0
 12 14  1  0  0  0
 14 28  1  0  0  0
 14 15  1  0  0  0
 15 16  2  0  0  0
 15 17  1  0  0  0
 16 20  1  0  0  0
 17 18  2  0  0  0
 18 19  1  0  0  0
 18 21  1  0  0  0
 19 20  2  0  0  0
 20 33  1  0  0  0
 21 22  1  0  0  0
 21 34  1  0  0  0
 22 27  1  0  0  0
 22 23  1  0  0  0
 22 35  1  0  0  0
 23 24  1  0  0  0
 23 36  1  0  0  0
 23 37  1  0  0  0
 24 25  1  0  0  0
 24 38  1  0  0  0
 24 39  1  0  0  0
 25 26  1  0  0  0
 26 27  1  0  0  0
 26 40  1  0  0  0
 26 41  1  0  0  0
 27 42  1  0  0  0
 27 43  1  0  0  0
M  END
> <s_m_entry_id>
264

> <i_f3d_flags>
0

> <r_lp_tautomer_probability>
1

> <r_epik_Ionization_Penalty>
  0.2720

> <r_epik_State_Penalty>
  0.2641

> <i_epik_Tot_Q>
0

> <s_m_job_name>
glide-dock_SP_p38_core_cons_top_1

> <r_i_docking_score>
-6.72735681913838

> <r_i_glide_gscore>
-6.99145681913838

> <r_i_glide_emodel>
-46.3621359981508

$$$$
lig_p38a_2s
                    3D
 Schrodinger Suite 2021-4.
 54 57  0  0  1  0            999 V2000
   32.7423   34.6633   14.3937 F   0  0  0  0  0  0
   33.4605   34.9058   15.5152 C   0  0  0  0  0  0
   32.8140   35.1493   16.7251 C   0  0  0  0  0  0
   33.5416   35.2247   17.9220 C   0  0  0  0  0  0
   34.9547   35.2300   17.8868 C   0  0  0  0  0  0
   35.6104   35.1495   16.6449 C   0  0  0  0  0  0
   36.9568   35.2067   16.5669 F   0  0  0  0  0  0
   34.8554   34.9055   15.4914 C   0  0  0  0  0  0
   35.7088   35.2361   19.0336 O   0  0  0  0  0  0
   35.1894   35.8250   20.1392 C   0  0  0  0  0  0
   35.2641   37.1578   20.2629 C   0  0  0  0  0  0
   34.5917   34.9841   21.1757 C   0  0  0  0  0  0
   34.4746   33.7740   21.0087 O   0  0  0  0  0  0
   34.1685   35.6090   22.3161 N   0  0  0  0  0  0
   33.4666   34.8012   23.3398 C   0  0  0  0  0  0
   31.9280   34.7771   23.1446 C   0  0  2  0  0  0
   31.3618   34.5559   24.4282 O   0  0  0  0  0  0
   31.3864   33.6589   22.2175 C   0  0  0  0  0  0
   31.5756   33.9498   20.8456 O   0  0  0  0  0  0
   34.2828   37.0324   22.5135 C   0  0  0  0  0  0
   34.8081   37.8247   21.4711 C   0  0  0  0  0  0
   33.8851   37.6366   23.6535 N   0  0  0  0  0  0
   33.9959   38.9617   23.7532 C   0  0  0  0  0  0
   34.4629   39.7875   22.8188 N   0  0  0  0  0  0
   34.8672   39.2141   21.6628 C   0  0  0  0  0  0
   33.5813   39.5493   24.9274 N   0  0  0  0  0  0
   33.0382   38.8648   26.0927 C   0  0  0  0  0  0
   33.0246   39.7926   27.3117 C   0  0  0  0  0  0
   32.4063   39.0871   28.5264 C   0  0  0  0  0  0
   31.1007   38.6257   28.2138 O   0  0  0  0  0  0
   31.0719   37.6902   27.1411 C   0  0  0  0  0  0
   31.6092   38.3487   25.8578 C   0  0  0  0  0  0
   31.5649   35.7478   22.8115 H   0  0  0  0  0  0
   31.7334   35.1570   16.7644 H   0  0  0  0  0  0
   32.9803   35.2922   18.8438 H   0  0  0  0  0  0
   35.3518   34.7032   14.5645 H   0  0  0  0  0  0
   35.7264   37.7554   19.4872 H   0  0  0  0  0  0
   33.8480   33.7771   23.3915 H   0  0  0  0  0  0
   33.7018   35.2114   24.3224 H   0  0  0  0  0  0
   30.4222   34.6551   24.3676 H   0  0  0  0  0  0
   31.8509   32.6985   22.4553 H   0  0  0  0  0  0
   30.3131   33.5262   22.3769 H   0  0  0  0  0  0
   31.1645   33.2612   20.3186 H   0  0  0  0  0  0
   35.2539   39.8757   20.9037 H   0  0  0  0  0  0
   33.7506   40.5467   25.0223 H   0  0  0  0  0  0
   33.6905   38.0199   26.3012 H   0  0  0  0  0  0
   34.0449   40.1110   27.5572 H   0  0  0  0  0  0
   32.4581   40.7011   27.0945 H   0  0  0  0  0  0
   33.0298   38.2462   28.8470 H   0  0  0  0  0  0
   32.3489   39.7794   29.3659 H   0  0  0  0  0  0
   31.6589   36.8101   27.4064 H   0  0  0  0  0  0
   30.0449   37.3516   27.0013 H   0  0  0  0  0  0
   30.9461   39.1591   25.5616 H   0  0  0  0  0  0
   31.5889   37.6173   25.0478 H   0  0  0  0  0  0
  1  2  1  0  0  0
  2  8  1  0  0  0
  2  3  2  0  0  0
  3  4  1  0  0  0
  3 34  1  0  0  0
  4  5  2  0  0  0
  4 35  1  0  0  0
  5  6  1  0  0  0
  5  9  1  0  0  0
  6  7  1  0  0  0
  6  8  2  0  0  0
  8 36  1  0  0  0
  9 10  1  0  0  0
 10 11  2  0  0  0
 10 12  1  0  0  0
 11 21  1  0  0  0
 11 37  1  0  0  0
 12 13  2  0  0  0
 12 14  1  0  0  0
 14 15  1  0  0  0
 14 20  1  0  0  0
 15 16  1  0  0  0
 15 38  1  0  0  0
 15 39  1  0  0  0
 16 33  1  0  0  0
 16 17  1  0  0  0
 16 18  1  0  0  0
 17 40  1  0  0  0
 18 19  1  0  0  0
 18 41  1  0  0  0
 18 42  1  0  0  0
 19 43  1  0  0  0
 20 21  1  0  0  0
 20 22  2  0  0  0
 21 25  2  0  0  0
 22 23  1  0  0  0
 23 24  2  0  0  0
 23 26  1  0  0  0
 24 25  1  0  0  0
 25 44  1  0  0  0
 26 27  1  0  0  0
 26 45  1  0  0  0
 27 32  1  0  0  0
 27 28  1  0  0  0
 27 46  1  0  0  0
 28 29  1  0  0  0
 28 47  1  0  0  0
 28 48  1  0  0  0
 29 30  1  0  0  0
 29 49  1  0  0  0
 29 50  1  0  0  0
 30 31  1  0  0  0
 31 32  1  0  0  0
 31 51  1  0  0  0
 31 52  1  0  0  0
 32 53  1  0  0  0
 32 54  1  0  0  0
M  END
> <s_m_entry_id>
266

> <i_f3d_flags>
0

> <r_lp_tautomer_probability>
1

> <r_epik_Ionization_Penalty>
  0.0000

> <r_epik_State_Penalty>
  0.0000

> <i_epik_Tot_Q>
0

> <s_m_job_name>
glide-dock_SP_p38_core_cons_top_1

> <r_i_docking_score>
-6.70321684817506

> <r_i_glide_gscore>
-6.70321684817506

> <r_i_glide_emodel>
-54.6118315765622

$$$$
lig_p38a_2r
                    3D
 Schrodinger Suite 2021-4.
 56 59  0  0  1  0            999 V2000
   32.7569   34.7015   14.3501 F   0  0  0  0  0  0
   33.4538   34.9229   15.4893 C   0  0  0  0  0  0
   32.7821   35.1493   16.6884 C   0  0  0  0  0  0
   33.4758   35.2438   17.9040 C   0  0  0  0  0  0
   32.7513   35.3753   19.0395 F   0  0  0  0  0  0
   34.8937   35.2148   17.9078 C   0  0  0  0  0  0
   35.5743   35.1483   16.6760 C   0  0  0  0  0  0
   34.8531   34.9272   15.4901 C   0  0  0  0  0  0
   35.6542   35.1729   19.0506 O   0  0  0  0  0  0
   35.1916   35.8026   20.1681 C   0  0  0  0  0  0
   35.2725   37.1402   20.2734 C   0  0  0  0  0  0
   34.5863   34.9784   21.2128 C   0  0  0  0  0  0
   34.4040   33.7765   21.0269 O   0  0  0  0  0  0
   34.2405   35.6078   22.3740 N   0  0  0  0  0  0
   33.7131   34.7875   23.4922 C   0  0  0  0  0  0
   34.7042   34.4803   24.6605 C   0  0  0  0  0  0
   35.6980   33.5504   24.2712 O   0  0  0  0  0  0
   35.4450   35.7039   25.2027 C   0  0  0  0  0  0
   33.9312   33.8131   25.8142 C   0  0  0  0  0  0
   34.3016   37.0367   22.5363 C   0  0  0  0  0  0
   34.8132   37.8177   21.4791 C   0  0  0  0  0  0
   33.8892   37.6501   23.6665 N   0  0  0  0  0  0
   34.0021   38.9683   23.7647 C   0  0  0  0  0  0
   34.4697   39.7887   22.8255 N   0  0  0  0  0  0
   34.8631   39.2136   21.6673 C   0  0  0  0  0  0
   33.6122   39.5548   24.9497 N   0  0  0  0  0  0
   33.0387   38.8767   26.1049 C   0  0  0  0  0  0
   33.1746   39.7411   27.3648 C   0  0  0  0  0  0
   32.5408   39.0293   28.5687 C   0  0  0  0  0  0
   31.1739   38.7489   28.2949 O   0  0  0  0  0  0
   30.9845   37.8845   27.1803 C   0  0  0  0  0  0
   31.5544   38.5305   25.9049 C   0  0  0  0  0  0
   31.7044   35.1539   16.6968 H   0  0  0  0  0  0
   36.6536   35.1471   16.6518 H   0  0  0  0  0  0
   35.3521   34.7462   14.5664 H   0  0  0  0  0  0
   35.7047   37.7348   19.4825 H   0  0  0  0  0  0
   32.8561   35.3198   23.9050 H   0  0  0  0  0  0
   33.2681   33.8551   23.1428 H   0  0  0  0  0  0
   35.3097   32.6788   24.2389 H   0  0  0  0  0  0
   34.7410   36.4179   25.6108 H   0  0  0  0  0  0
   36.0933   35.4525   26.0236 H   0  0  0  0  0  0
   36.0668   36.1863   24.4508 H   0  0  0  0  0  0
   33.1849   34.4893   26.2313 H   0  0  0  0  0  0
   33.3962   32.9197   25.4906 H   0  0  0  0  0  0
   34.5926   33.5244   26.6317 H   0  0  0  0  0  0
   35.2467   39.8686   20.9003 H   0  0  0  0  0  0
   33.7592   40.5533   25.0389 H   0  0  0  0  0  0
   33.5936   37.9586   26.2759 H   0  0  0  0  0  0
   34.2246   39.9485   27.5696 H   0  0  0  0  0  0
   32.6848   40.7062   27.2184 H   0  0  0  0  0  0
   33.0717   38.1052   28.8006 H   0  0  0  0  0  0
   32.5992   39.6620   29.4540 H   0  0  0  0  0  0
   31.4582   36.9209   27.3736 H   0  0  0  0  0  0
   29.9173   37.6952   27.0718 H   0  0  0  0  0  0
   30.9861   39.4318   25.6675 H   0  0  0  0  0  0
   31.4294   37.8501   25.0632 H   0  0  0  0  0  0
  1  2  1  0  0  0
  2  8  1  0  0  0
  2  3  2  0  0  0
  3  4  1  0  0  0
  3 33  1  0  0  0
  4  5  1  0  0  0
  4  6  2  0  0  0
  6  7  1  0  0  0
  6  9  1  0  0  0
  7  8  2  0  0  0
  7 34  1  0  0  0
  8 35  1  0  0  0
  9 10  1  0  0  0
 10 11  2  0  0  0
 10 12  1  0  0  0
 11 21  1  0  0  0
 11 36  1  0  0  0
 12 13  2  0  0  0
 12 14  1  0  0  0
 14 15  1  0  0  0
 14 20  1  0  0  0
 15 16  1  0  0  0
 15 37  1  0  0  0
 15 38  1  0  0  0
 16 17  1  0  0  0
 16 18  1  0  0  0
 16 19  1  0  0  0
 17 39  1  0  0  0
 18 40  1  0  0  0
 18 41  1  0  0  0
 18 42  1  0  0  0
 19 43  1  0  0  0
 19 44  1  0  0  0
 19 45  1  0  0  0
 20 21  1  0  0  0
 20 22  2  0  0  0
 21 25  2  0  0  0
 22 23  1  0  0  0
 23 24  2  0  0  0
 23 26  1  0  0  0
 24 25  1  0  0  0
 25 46  1  0  0  0
 26 27  1  0  0  0
 26 47  1  0  0  0
 27 32  1  0  0  0
 27 28  1  0  0  0
 27 48  1  0  0  0
 28 29  1  0  0  0
 28 49  1  0  0  0
 28 50  1  0  0  0
 29 30  1  0  0  0
 29 51  1  0  0  0
 29 52  1  0  0  0
 30 31  1  0  0  0
 31 32  1  0  0  0
 31 53  1  0  0  0
 31 54  1  0  0  0
 32 55  1  0  0  0
 32 56  1  0  0  0
M  END
> <s_m_entry_id>
257

> <i_f3d_flags>
0

> <r_lp_tautomer_probability>
1

> <r_epik_Ionization_Penalty>
  0.0000

> <r_epik_State_Penalty>
  0.0000

> <i_epik_Tot_Q>
0

> <s_m_job_name>
glide-dock_SP_p38_core_cons_top_1

> <r_i_docking_score>
-7.09097527239093

> <r_i_glide_gscore>
-7.09097527239093

> <r_i_glide_emodel>
-48.2387222936418

$$$$
lig_p38a_2i
                    3D
 Schrodinger Suite 2021-4.
 48 51  0  0  1  0            999 V2000
   36.6183   34.7920   16.1989 F   0  0  0  0  0  0
   35.2917   34.9440   16.3883 C   0  0  0  0  0  0
   34.4267   34.7500   15.2983 C   0  0  0  0  0  0
   33.0522   34.9646   15.4555 C   0  0  0  0  0  0
   32.5535   35.3151   16.7172 C   0  0  0  0  0  0
   33.3796   35.3386   17.8499 C   0  0  0  0  0  0
   34.7657   35.1695   17.6807 C   0  0  0  0  0  0
   35.6695   35.1481   18.8868 C   0  0  0  0  0  0
   35.1484   35.8217   20.1349 C   0  0  0  0  0  0
   35.2595   37.1567   20.2712 C   0  0  0  0  0  0
   34.5131   35.0063   21.1817 C   0  0  0  0  0  0
   34.2228   33.8262   20.9968 O   0  0  0  0  0  0
   34.2057   35.6390   22.3565 N   0  0  0  0  0  0
   33.6635   34.8438   23.4685 C   0  0  0  0  0  0
   34.2941   37.0575   22.5298 C   0  0  0  0  0  0
   34.8101   37.8361   21.4769 C   0  0  0  0  0  0
   33.8956   37.6546   23.6689 N   0  0  0  0  0  0
   34.0057   38.9765   23.7650 C   0  0  0  0  0  0
   34.4599   39.8029   22.8238 N   0  0  0  0  0  0
   34.8488   39.2321   21.6643 C   0  0  0  0  0  0
   33.6540   39.5493   24.9708 N   0  0  0  0  0  0
   33.0563   38.8282   26.0912 C   0  0  0  0  0  0
   33.3618   39.5322   27.4232 C   0  0  0  0  0  0
   32.6663   38.7996   28.5811 C   0  0  0  0  0  0
   31.2660   38.7432   28.3418 O   0  0  0  0  0  0
   30.9244   38.0070   27.1720 C   0  0  0  0  0  0
   31.5320   38.6872   25.9301 C   0  0  0  0  0  0
   34.8144   34.4995   14.3250 H   0  0  0  0  0  0
   32.3771   34.8918   14.6132 H   0  0  0  0  0  0
   31.5051   35.4796   16.8513 H   0  0  0  0  0  0
   32.9345   35.5245   18.8183 H   0  0  0  0  0  0
   35.7536   34.1000   19.1413 H   0  0  0  0  0  0
   36.6551   35.5498   18.6513 H   0  0  0  0  0  0
   35.7166   37.7572   19.4972 H   0  0  0  0  0  0
   34.0280   35.2120   24.4264 H   0  0  0  0  0  0
   32.5744   34.9034   23.4721 H   0  0  0  0  0  0
   33.9416   33.7907   23.4312 H   0  0  0  0  0  0
   35.2234   39.8831   20.8907 H   0  0  0  0  0  0
   33.7516   40.5528   25.0621 H   0  0  0  0  0  0
   33.4935   37.8315   26.1428 H   0  0  0  0  0  0
   34.4360   39.5646   27.5975 H   0  0  0  0  0  0
   33.0142   40.5640   27.3952 H   0  0  0  0  0  0
   33.0681   37.7929   28.7047 H   0  0  0  0  0  0
   32.8413   39.3311   29.5172 H   0  0  0  0  0  0
   31.2717   36.9782   27.2626 H   0  0  0  0  0  0
   29.8387   37.9685   27.0942 H   0  0  0  0  0  0
   31.0828   39.6691   25.7959 H   0  0  0  0  0  0
   31.2974   38.1097   25.0366 H   0  0  0  0  0  0
  1  2  1  0  0  0
  2  7  1  0  0  0
  2  3  2  0  0  0
  3  4  1  0  0  0
  3 28  1  0  0  0
  4  5  2  0  0  0
  4 29  1  0  0  0
  5  6  1  0  0  0
  5 30  1  0  0  0
  6  7  2  0  0  0
  6 31  1  0  0  0
  7  8  1  0  0  0
  8  9  1  0  0  0
  8 32  1  0  0  0
  8 33  1  0  0  0
  9 10  2  0  0  0
  9 11  1  0  0  0
 10 16  1  0  0  0
 10 34  1  0  0  0
 11 12  2  0  0  0
 11 13  1  0  0  0
 13 14  1  0  0  0
 13 15  1  0  0  0
 14 35  1  0  0  0
 14 36  1  0  0  0
 14 37  1  0  0  0
 15 16  1  0  0  0
 15 17  2  0  0  0
 16 20  2  0  0  0
 17 18  1  0  0  0
 18 19  2  0  0  0
 18 21  1  0  0  0
 19 20  1  0  0  0
 20 38  1  0  0  0
 21 22  1  0  0  0
 21 39  1  0  0  0
 22 27  1  0  0  0
 22 23  1  0  0  0
 22 40  1  0  0  0
 23 24  1  0  0  0
 23 41  1  0  0  0
 23 42  1  0  0  0
 24 25  1  0  0  0
 24 43  1  0  0  0
 24 44  1  0  0  0
 25 26  1  0  0  0
 26 27  1  0  0  0
 26 45  1  0  0  0
 26 46  1  0  0  0
 27 47  1  0  0  0
 27 48  1  0  0  0
M  END
> <s_m_entry_id>
285

> <i_f3d_flags>
0

> <r_lp_tautomer_probability>
1

> <r_epik_Ionization_Penalty>
  0.0000

> <r_epik_State_Penalty>
  0.0000

> <i_epik_Tot_Q>
0

> <s_m_job_name>
glide-dock_SP_p38_core_cons_top_1

> <r_i_docking_score>
-5.84337586636674

> <r_i_glide_gscore>
-5.84337586636674

> <r_i_glide_emodel>
-29.6505939572098

$$$$
lig_p38a_2q
                    3D
 Schrodinger Suite 2021-4.
 59 63  0  0  1  0            999 V2000
   32.7374   34.7137   14.3817 F   0  0  0  0  0  0
   33.4581   34.9235   15.5081 C   0  0  0  0  0  0
   34.8570   34.9223   15.4891 C   0  0  0  0  0  0
   35.6000   35.1493   16.6556 C   0  0  0  0  0  0
   36.9504   35.1955   16.5817 F   0  0  0  0  0  0
   34.9410   35.2274   17.8994 C   0  0  0  0  0  0
   33.5294   35.2303   17.9224 C   0  0  0  0  0  0
   32.8102   35.1493   16.7210 C   0  0  0  0  0  0
   35.6907   35.2184   19.0479 O   0  0  0  0  0  0
   35.1739   35.8228   20.1554 C   0  0  0  0  0  0
   35.2674   37.1589   20.2658 C   0  0  0  0  0  0
   34.5522   35.0036   21.2004 C   0  0  0  0  0  0
   34.3222   33.8136   20.9928 O   0  0  0  0  0  0
   34.2193   35.6308   22.3751 N   0  0  0  0  0  0
   33.6502   34.8163   23.4938 C   0  0  0  0  0  0
   34.4678   34.9217   24.8120 C   0  0  0  0  0  0
   33.9845   33.9735   25.9181 C   0  0  0  0  0  0
   32.1350   35.0861   23.6661 C   0  0  0  0  0  0
   31.4604   34.1076   24.6359 C   0  0  0  0  0  0
   32.2116   34.2389   26.3060 S   0  0  0  0  0  0
   31.7384   33.1210   27.1343 O   0  0  0  0  0  0
   32.0543   35.6260   26.7634 O   0  0  0  0  0  0
   34.3166   37.0653   22.5278 C   0  0  0  0  0  0
   34.8204   37.8434   21.4670 C   0  0  0  0  0  0
   33.9356   37.6972   23.6521 N   0  0  0  0  0  0
   34.0369   39.0146   23.7461 C   0  0  0  0  0  0
   34.4832   39.8347   22.7985 N   0  0  0  0  0  0
   34.8739   39.2441   21.6461 C   0  0  0  0  0  0
   33.6448   39.5756   24.9422 N   0  0  0  0  0  0
   33.4308   38.8252   26.1757 C   0  0  0  0  0  0
   34.7580   38.5072   26.8838 C   0  0  0  0  0  0
   34.4943   37.7886   28.2164 C   0  0  0  0  0  0
   33.6463   38.5848   29.0380 O   0  0  0  0  0  0
   32.3652   38.8162   28.4609 C   0  0  0  0  0  0
   32.5196   39.5897   27.1420 C   0  0  0  0  0  0
   35.3521   34.7494   14.5593 H   0  0  0  0  0  0
   32.9722   35.2892   18.8454 H   0  0  0  0  0  0
   31.7338   35.1498   16.7534 H   0  0  0  0  0  0
   35.7325   37.7480   19.4889 H   0  0  0  0  0  0
   33.7188   33.7555   23.2499 H   0  0  0  0  0  0
   35.5193   34.7145   24.6073 H   0  0  0  0  0  0
   34.4379   35.9203   25.2362 H   0  0  0  0  0  0
   34.1019   32.9328   25.6374 H   0  0  0  0  0  0
   34.5520   34.1281   26.8352 H   0  0  0  0  0  0
   31.9516   36.1015   24.0160 H   0  0  0  0  0  0
   31.6419   35.0056   22.6966 H   0  0  0  0  0  0
   31.5602   33.0777   24.2956 H   0  0  0  0  0  0
   30.3949   34.3223   24.7308 H   0  0  0  0  0  0
   35.2485   39.8931   20.8703 H   0  0  0  0  0  0
   33.7527   40.5790   25.0396 H   0  0  0  0  0  0
   32.9261   37.8895   25.9338 H   0  0  0  0  0  0
   35.3077   39.4299   27.0772 H   0  0  0  0  0  0
   35.3957   37.8911   26.2492 H   0  0  0  0  0  0
   35.4321   37.6196   28.7443 H   0  0  0  0  0  0
   34.0468   36.8076   28.0492 H   0  0  0  0  0  0
   31.7613   39.3924   29.1619 H   0  0  0  0  0  0
   31.8482   37.8691   28.3008 H   0  0  0  0  0  0
   31.5416   39.7535   26.6891 H   0  0  0  0  0  0
   32.9370   40.5756   27.3545 H   0  0  0  0  0  0
  1  2  1  0  0  0
  2  8  1  0  0  0
  2  3  2  0  0  0
  3  4  1  0  0  0
  3 36  1  0  0  0
  4  5  1  0  0  0
  4  6  2  0  0  0
  6  7  1  0  0  0
  6  9  1  0  0  0
  7  8  2  0  0  0
  7 37  1  0  0  0
  8 38  1  0  0  0
  9 10  1  0  0  0
 10 11  2  0  0  0
 10 12  1  0  0  0
 11 24  1  0  0  0
 11 39  1  0  0  0
 12 13  2  0  0  0
 12 14  1  0  0  0
 14 15  1  0  0  0
 14 23  1  0  0  0
 15 16  1  0  0  0
 15 18  1  0  0  0
 15 40  1  0  0  0
 16 17  1  0  0  0
 16 41  1  0  0  0
 16 42  1  0  0  0
 17 20  1  0  0  0
 17 43  1  0  0  0
 17 44  1  0  0  0
 18 19  1  0  0  0
 18 45  1  0  0  0
 18 46  1  0  0  0
 19 20  1  0  0  0
 19 47  1  0  0  0
 19 48  1  0  0  0
 20 21  2  0  0  0
 20 22  2  0  0  0
 23 24  1  0  0  0
 23 25  2  0  0  0
 24 28  2  0  0  0
 25 26  1  0  0  0
 26 27  2  0  0  0
 26 29  1  0  0  0
 27 28  1  0  0  0
 28 49  1  0  0  0
 29 30  1  0  0  0
 29 50  1  0  0  0
 30 35  1  0  0  0
 30 31  1  0  0  0
 30 51  1  0  0  0
 31 32  1  0  0  0
 31 52  1  0  0  0
 31 53  1  0  0  0
 32 33  1  0  0  0
 32 54  1  0  0  0
 32 55  1  0  0  0
 33 34  1  0  0  0
 34 35  1  0  0  0
 34 56  1  0  0  0
 34 57  1  0  0  0
 35 58  1  0  0  0
 35 59  1  0  0  0
M  END
> <s_m_entry_id>
265

> <i_f3d_flags>
0

> <r_lp_tautomer_probability>
1

> <r_epik_Ionization_Penalty>
  0.0000

> <r_epik_State_Penalty>
  0.0000

> <i_epik_Tot_Q>
0

> <s_m_job_name>
glide-dock_SP_p38_core_cons_top_1

> <r_i_docking_score>
-6.72052074899028

> <r_i_glide_gscore>
-6.72052074899028

> <r_i_glide_emodel>
-43.6411540524808

$$$$
lig_p38a_2h
                    3D
 Schrodinger Suite 2021-4.
 46 49  0  0  1  0            999 V2000
   35.0129   35.4276   15.6622 F   0  0  0  0  0  0
   36.0997   35.7494   16.4027 C   0  0  0  0  0  0
   37.2969   36.1059   15.7614 C   0  0  0  0  0  0
   38.4491   36.3485   16.5176 C   0  0  0  0  0  0
   38.4202   36.2377   17.9176 C   0  0  0  0  0  0
   37.2108   35.9494   18.5718 C   0  0  0  0  0  0
   36.0452   35.6992   17.8122 C   0  0  0  0  0  0
   34.5683   35.1502   18.6028 S   0  0  0  0  0  0
   34.5842   35.9896   20.1655 C   0  0  0  0  0  0
   34.7953   37.3071   20.3224 C   0  0  0  0  0  0
   34.2445   35.0929   21.2785 C   0  0  0  0  0  0
   34.1129   33.8764   21.1308 O   0  0  0  0  0  0
   34.1082   35.6871   22.5027 N   0  0  0  0  0  0
   33.7880   34.8675   23.6832 C   0  0  0  0  0  0
   34.2600   37.0983   22.7189 C   0  0  0  0  0  0
   34.6354   37.9143   21.6324 C   0  0  0  0  0  0
   34.0391   37.6662   23.9244 N   0  0  0  0  0  0
   34.1761   38.9867   24.0437 C   0  0  0  0  0  0
   34.5496   39.8338   23.0847 N   0  0  0  0  0  0
   34.7799   39.2936   21.8709 C   0  0  0  0  0  0
   33.8939   39.5488   25.2714 N   0  0  0  0  0  0
   33.2436   38.8519   26.3748 C   0  0  0  0  0  0
   33.4423   39.6069   27.6959 C   0  0  0  0  0  0
   32.7142   38.8782   28.8369 C   0  0  0  0  0  0
   31.3314   38.7486   28.5264 O   0  0  0  0  0  0
   31.0838   37.9867   27.3506 C   0  0  0  0  0  0
   31.7345   38.6679   26.1356 C   0  0  0  0  0  0
   37.3536   36.1862   14.6894 H   0  0  0  0  0  0
   39.3525   36.6177   16.0070 H   0  0  0  0  0  0
   39.3287   36.3533   18.4900 H   0  0  0  0  0  0
   37.2053   35.8594   19.6487 H   0  0  0  0  0  0
   35.0150   37.9483   19.4813 H   0  0  0  0  0  0
   34.5366   35.0162   24.4624 H   0  0  0  0  0  0
   32.8234   35.1721   24.0885 H   0  0  0  0  0  0
   33.7310   33.7937   23.5030 H   0  0  0  0  0  0
   35.0631   39.9582   21.0730 H   0  0  0  0  0  0
   33.9660   40.5590   25.3422 H   0  0  0  0  0  0
   33.7064   37.8687   26.4785 H   0  0  0  0  0  0
   34.5038   39.6961   27.9312 H   0  0  0  0  0  0
   33.0569   40.6250   27.6093 H   0  0  0  0  0  0
   33.1508   37.8932   29.0140 H   0  0  0  0  0  0
   32.8180   39.4402   29.7646 H   0  0  0  0  0  0
   31.4675   36.9721   27.4734 H   0  0  0  0  0  0
   30.0076   37.9059   27.2047 H   0  0  0  0  0  0
   31.2597   39.6367   25.9683 H   0  0  0  0  0  0
   31.5571   38.0687   25.2413 H   0  0  0  0  0  0
  1  2  1  0  0  0
  2  7  1  0  0  0
  2  3  2  0  0  0
  3  4  1  0  0  0
  3 28  1  0  0  0
  4  5  2  0  0  0
  4 29  1  0  0  0
  5  6  1  0  0  0
  5 30  1  0  0  0
  6  7  2  0  0  0
  6 31  1  0  0  0
  7  8  1  0  0  0
  8  9  1  0  0  0
  9 10  2  0  0  0
  9 11  1  0  0  0
 10 16  1  0  0  0
 10 32  1  0  0  0
 11 12  2  0  0  0
 11 13  1  0  0  0
 13 14  1  0  0  0
 13 15  1  0  0  0
 14 33  1  0  0  0
 14 34  1  0  0  0
 14 35  1  0  0  0
 15 16  1  0  0  0
 15 17  2  0  0  0
 16 20  2  0  0  0
 17 18  1  0  0  0
 18 19  2  0  0  0
 18 21  1  0  0  0
 19 20  1  0  0  0
 20 36  1  0  0  0
 21 22  1  0  0  0
 21 37  1  0  0  0
 22 27  1  0  0  0
 22 23  1  0  0  0
 22 38  1  0  0  0
 23 24  1  0  0  0
 23 39  1  0  0  0
 23 40  1  0  0  0
 24 25  1  0  0  0
 24 41  1  0  0  0
 24 42  1  0  0  0
 25 26  1  0  0  0
 26 27  1  0  0  0
 26 43  1  0  0  0
 26 44  1  0  0  0
 27 45  1  0  0  0
 27 46  1  0  0  0
M  END
> <s_m_entry_id>
254

> <i_f3d_flags>
0

> <r_lp_tautomer_probability>
1

> <r_epik_Ionization_Penalty>
  0.0000

> <r_epik_State_Penalty>
  0.0000

> <i_epik_Tot_Q>
0

> <s_m_job_name>
glide-dock_SP_p38_core_cons_top_1

> <r_i_docking_score>
-7.45049467904627

> <r_i_glide_gscore>
-7.45049467904627

> <r_i_glide_emodel>
-57.1954515134588

$$$$
lig_p38a_2e
                    3D
 Schrodinger Suite 2021-4.
 46 49  0  0  1  0            999 V2000
   38.9469   37.1450   15.2442 F   0  0  0  0  0  0
   38.1224   36.5750   16.1467 C   0  0  0  0  0  0
   38.5497   36.3493   17.4700 C   0  0  0  0  0  0
   37.6080   35.9494   18.4404 C   0  0  0  0  0  0
   36.2694   35.6789   18.0649 C   0  0  0  0  0  0
   35.8871   35.7966   16.7190 C   0  0  0  0  0  0
   36.7944   36.3096   15.7799 C   0  0  0  0  0  0
   35.3640   35.1631   18.9528 O   0  0  0  0  0  0
   35.1251   35.7984   20.1421 C   0  0  0  0  0  0
   35.2191   37.1432   20.2671 C   0  0  0  0  0  0
   34.5362   34.9798   21.2004 C   0  0  0  0  0  0
   34.2956   33.7872   21.0153 O   0  0  0  0  0  0
   34.2411   35.6051   22.3762 N   0  0  0  0  0  0
   33.7372   34.8031   23.5027 C   0  0  0  0  0  0
   34.3239   37.0266   22.5524 C   0  0  0  0  0  0
   34.8111   37.8111   21.4871 C   0  0  0  0  0  0
   33.9339   37.6309   23.6945 N   0  0  0  0  0  0
   34.0070   38.9579   23.7664 C   0  0  0  0  0  0
   34.4438   39.7841   22.8140 N   0  0  0  0  0  0
   34.8598   39.2071   21.6689 C   0  0  0  0  0  0
   33.6057   39.5506   24.9432 N   0  0  0  0  0  0
   33.0646   38.8766   26.1166 C   0  0  0  0  0  0
   33.1008   39.8159   27.3316 C   0  0  0  0  0  0
   32.4716   39.1410   28.5597 C   0  0  0  0  0  0
   31.1404   38.7419   28.2593 O   0  0  0  0  0  0
   31.0626   37.7911   27.2038 C   0  0  0  0  0  0
   31.6147   38.4055   25.9064 C   0  0  0  0  0  0
   39.5715   36.5576   17.7511 H   0  0  0  0  0  0
   37.9219   35.8179   19.4658 H   0  0  0  0  0  0
   34.8790   35.5427   16.4197 H   0  0  0  0  0  0
   36.4682   36.5120   14.7718 H   0  0  0  0  0  0
   35.5665   37.7676   19.4571 H   0  0  0  0  0  0
   34.1154   35.1754   24.4547 H   0  0  0  0  0  0
   32.6479   34.8480   23.5332 H   0  0  0  0  0  0
   34.0316   33.7529   23.4581 H   0  0  0  0  0  0
   35.2173   39.8629   20.8916 H   0  0  0  0  0  0
   33.7463   40.5506   25.0214 H   0  0  0  0  0  0
   33.6918   38.0104   26.3317 H   0  0  0  0  0  0
   34.1259   40.1113   27.5522 H   0  0  0  0  0  0
   32.5534   40.7332   27.1104 H   0  0  0  0  0  0
   33.0596   38.2797   28.8775 H   0  0  0  0  0  0
   32.4474   39.8373   29.3970 H   0  0  0  0  0  0
   31.6137   36.8895   27.4715 H   0  0  0  0  0  0
   30.0219   37.4964   27.0748 H   0  0  0  0  0  0
   30.9856   39.2440   25.6081 H   0  0  0  0  0  0
   31.5591   37.6726   25.1016 H   0  0  0  0  0  0
  1  2  1  0  0  0
  2  7  1  0  0  0
  2  3  2  0  0  0
  3  4  1  0  0  0
  3 28  1  0  0  0
  4  5  2  0  0  0
  4 29  1  0  0  0
  5  6  1  0  0  0
  5  8  1  0  0  0
  6  7  2  0  0  0
  6 30  1  0  0  0
  7 31  1  0  0  0
  8  9  1  0  0  0
  9 10  2  0  0  0
  9 11  1  0  0  0
 10 16  1  0  0  0
 10 32  1  0  0  0
 11 12  2  0  0  0
 11 13  1  0  0  0
 13 14  1  0  0  0
 13 15  1  0  0  0
 14 33  1  0  0  0
 14 34  1  0  0  0
 14 35  1  0  0  0
 15 16  1  0  0  0
 15 17  2  0  0  0
 16 20  2  0  0  0
 17 18  1  0  0  0
 18 19  2  0  0  0
 18 21  1  0  0  0
 19 20  1  0  0  0
 20 36  1  0  0  0
 21 22  1  0  0  0
 21 37  1  0  0  0
 22 27  1  0  0  0
 22 23  1  0  0  0
 22 38  1  0  0  0
 23 24  1  0  0  0
 23 39  1  0  0  0
 23 40  1  0  0  0
 24 25  1  0  0  0
 24 41  1  0  0  0
 24 42  1  0  0  0
 25 26  1  0  0  0
 26 27  1  0  0  0
 26 43  1  0  0  0
 26 44  1  0  0  0
 27 45  1  0  0  0
 27 46  1  0  0  0
M  END
> <s_m_entry_id>
255

> <i_f3d_flags>
0

> <r_lp_tautomer_probability>
1

> <r_epik_Ionization_Penalty>
  0.0000

> <r_epik_State_Penalty>
  0.0000

> <i_epik_Tot_Q>
0

> <s_m_job_name>
glide-dock_SP_p38_core_cons_top_1

> <r_i_docking_score>
-7.12654828805117

> <r_i_glide_gscore>
-7.12654828805117

> <r_i_glide_emodel>
-46.0030726681961

$$$$
lig_p38a_3fmk
                    3D
 Schrodinger Suite 2021-4.
 46 49  0  0  1  0            999 V2000
   32.7446   34.6889   14.3814 F   0  0  0  0  0  0
   33.4623   34.9112   15.5075 C   0  0  0  0  0  0
   34.8614   34.9121   15.4891 C   0  0  0  0  0  0
   35.6076   35.1493   16.6496 C   0  0  0  0  0  0
   36.9582   35.1989   16.5717 F   0  0  0  0  0  0
   34.9490   35.2340   17.8910 C   0  0  0  0  0  0
   33.5367   35.2377   17.9169 C   0  0  0  0  0  0
   32.8148   35.1493   16.7177 C   0  0  0  0  0  0
   35.7032   35.2358   19.0345 O   0  0  0  0  0  0
   35.1763   35.8284   20.1410 C   0  0  0  0  0  0
   35.2687   37.1623   20.2633 C   0  0  0  0  0  0
   34.5520   34.9965   21.1724 C   0  0  0  0  0  0
   34.3266   33.8044   20.9703 O   0  0  0  0  0  0
   34.2131   35.6196   22.3389 N   0  0  0  0  0  0
   33.6691   34.8185   23.4471 C   0  0  0  0  0  0
   34.3021   37.0403   22.5259 C   0  0  0  0  0  0
   34.8091   37.8282   21.4723 C   0  0  0  0  0  0
   33.9236   37.6395   23.6754 N   0  0  0  0  0  0
   34.0462   38.9621   23.7750 C   0  0  0  0  0  0
   34.4817   39.7909   22.8294 N   0  0  0  0  0  0
   34.8628   39.2214   21.6669 C   0  0  0  0  0  0
   33.7216   39.5493   24.9785 N   0  0  0  0  0  0
   33.3528   38.8339   26.1917 C   0  0  1  0  0  0
   34.5933   38.2174   26.8688 C   0  0  0  0  0  0
   32.5749   39.7735   27.1318 C   0  0  0  0  0  0
   32.0153   39.0667   28.2661 N   0  0  3  0  0  0
   30.9521   38.2507   28.1514 N   0  0  0  0  0  0
   30.8224   37.8724   29.4115 C   0  0  0  0  0  0
   31.7514   38.4148   30.2515 N   0  0  0  0  0  0
   32.5024   39.1727   29.5187 N   0  0  0  0  0  0
   32.6799   38.0238   25.9055 H   0  0  0  0  0  0
   35.3521   34.7361   14.5583 H   0  0  0  0  0  0
   32.9798   35.3033   18.8394 H   0  0  0  0  0  0
   31.7382   35.1502   16.7530 H   0  0  0  0  0  0
   35.7376   37.7603   19.4944 H   0  0  0  0  0  0
   33.9045   33.7549   23.3818 H   0  0  0  0  0  0
   34.0678   35.1531   24.4055 H   0  0  0  0  0  0
   32.5840   34.9208   23.4806 H   0  0  0  0  0  0
   35.2373   39.8808   20.8994 H   0  0  0  0  0  0
   33.8436   40.5526   25.0532 H   0  0  0  0  0  0
   34.3199   37.6328   27.7474 H   0  0  0  0  0  0
   35.1245   37.5449   26.1946 H   0  0  0  0  0  0
   35.2948   38.9888   27.1874 H   0  0  0  0  0  0
   31.7518   40.2495   26.5967 H   0  0  0  0  0  0
   33.2153   40.5795   27.4935 H   0  0  0  0  0  0
   30.0433   37.1974   29.7350 H   0  0  0  0  0  0
  1  2  1  0  0  0
  2  8  1  0  0  0
  2  3  2  0  0  0
  3  4  1  0  0  0
  3 32  1  0  0  0
  4  5  1  0  0  0
  4  6  2  0  0  0
  6  7  1  0  0  0
  6  9  1  0  0  0
  7  8  2  0  0  0
  7 33  1  0  0  0
  8 34  1  0  0  0
  9 10  1  0  0  0
 10 11  2  0  0  0
 10 12  1  0  0  0
 11 17  1  0  0  0
 11 35  1  0  0  0
 12 13  2  0  0  0
 12 14  1  0  0  0
 14 15  1  0  0  0
 14 16  1  0  0  0
 15 36  1  0  0  0
 15 37  1  0  0  0
 15 38  1  0  0  0
 16 17  1  0  0  0
 16 18  2  0  0  0
 17 21  2  0  0  0
 18 19  1  0  0  0
 19 20  2  0  0  0
 19 22  1  0  0  0
 20 21  1  0  0  0
 21 39  1  0  0  0
 22 23  1  0  0  0
 22 40  1  0  0  0
 23 31  1  0  0  0
 23 24  1  0  0  0
 23 25  1  0  0  0
 24 41  1  0  0  0
 24 42  1  0  0  0
 24 43  1  0  0  0
 25 26  1  0  0  0
 25 44  1  0  0  0
 25 45  1  0  0  0
 26 30  1  0  0  0
 26 27  1  0  0  0
 27 28  2  0  0  0
 28 29  1  0  0  0
 28 46  1  0  0  0
 29 30  2  0  0  0
M  END
> <s_m_entry_id>
276

> <i_f3d_flags>
0

> <r_lp_tautomer_probability>
1

> <r_epik_Ionization_Penalty>
  0.0000

> <r_epik_State_Penalty>
  0.0000

> <i_epik_Tot_Q>
0

> <s_m_job_name>
glide-dock_SP_p38_core_cons_top_1

> <r_i_docking_score>
-6.43956157047293

> <r_i_glide_gscore>
-6.43956157047293

> <r_i_glide_emodel>
-50.3539223057349

$$$$
lig_p38a_2bb
                    3D
 Schrodinger Suite 2021-4.
 44 46  0  0  1  0            999 V2000
   38.9522   37.1500   15.4368 F   0  0  0  0  0  0
   38.1708   36.5363   16.3132 C   0  0  0  0  0  0
   36.9098   36.1947   15.8487 C   0  0  0  0  0  0
   35.9623   35.6919   16.7327 C   0  0  0  0  0  0
   34.7601   35.2904   16.2697 F   0  0  0  0  0  0
   36.2635   35.6392   18.1023 C   0  0  0  0  0  0
   37.5637   35.9492   18.5719 C   0  0  0  0  0  0
   38.5484   36.3493   17.6554 C   0  0  0  0  0  0
   35.3059   35.1709   18.9427 O   0  0  0  0  0  0
   35.1243   35.7973   20.1400 C   0  0  0  0  0  0
   35.2285   37.1427   20.2661 C   0  0  0  0  0  0
   34.5187   34.9839   21.1951 C   0  0  0  0  0  0
   34.2985   33.7885   21.0171 O   0  0  0  0  0  0
   34.1957   35.6201   22.3597 N   0  0  0  0  0  0
   33.7106   34.8334   23.5068 C   0  0  0  0  0  0
   34.2968   37.0380   22.5389 C   0  0  0  0  0  0
   34.8092   37.8161   21.4836 C   0  0  0  0  0  0
   33.9088   37.6421   23.6820 N   0  0  0  0  0  0
   34.0226   38.9647   23.7719 C   0  0  0  0  0  0
   34.4857   39.7861   22.8284 N   0  0  0  0  0  0
   34.8706   39.2116   21.6654 C   0  0  0  0  0  0
   33.5967   39.5537   24.9405 N   0  0  0  0  0  0
   32.7202   38.9304   25.9248 C   0  0  0  0  0  0
   33.4628   38.0291   26.9293 C   0  0  0  0  0  0
   34.6642   38.9253   28.0120 S   0  0  0  0  0  0
   35.7285   39.5008   27.1777 O   0  0  0  0  0  0
   35.0211   38.0325   29.1244 O   0  0  0  0  0  0
   33.6660   40.3122   28.6891 C   0  0  0  0  0  0
   36.6962   36.3573   14.8085 H   0  0  0  0  0  0
   37.8209   35.8190   19.6160 H   0  0  0  0  0  0
   39.5483   36.5801   17.9940 H   0  0  0  0  0  0
   35.5549   37.7812   19.4592 H   0  0  0  0  0  0
   33.5651   33.7725   23.3072 H   0  0  0  0  0  0
   34.4170   34.9023   24.3349 H   0  0  0  0  0  0
   32.7529   35.2182   23.8558 H   0  0  0  0  0  0
   35.2557   39.8748   20.9090 H   0  0  0  0  0  0
   33.7520   40.5516   25.0362 H   0  0  0  0  0  0
   31.9645   38.3456   25.3977 H   0  0  0  0  0  0
   32.1742   39.7173   26.4454 H   0  0  0  0  0  0
   34.0093   37.2389   26.4137 H   0  0  0  0  0  0
   32.7419   37.5381   27.5822 H   0  0  0  0  0  0
   34.2605   40.8501   29.4260 H   0  0  0  0  0  0
   32.7676   39.9225   29.1659 H   0  0  0  0  0  0
   33.3957   41.0041   27.8918 H   0  0  0  0  0  0
  1  2  1  0  0  0
  2  8  1  0  0  0
  2  3  2  0  0  0
  3  4  1  0  0  0
  3 29  1  0  0  0
  4  5  1  0  0  0
  4  6  2  0  0  0
  6  7  1  0  0  0
  6  9  1  0  0  0
  7  8  2  0  0  0
  7 30  1  0  0  0
  8 31  1  0  0  0
  9 10  1  0  0  0
 10 11  2  0  0  0
 10 12  1  0  0  0
 11 17  1  0  0  0
 11 32  1  0  0  0
 12 13  2  0  0  0
 12 14  1  0  0  0
 14 15  1  0  0  0
 14 16  1  0  0  0
 15 33  1  0  0  0
 15 34  1  0  0  0
 15 35  1  0  0  0
 16 17  1  0  0  0
 16 18  2  0  0  0
 17 21  2  0  0  0
 18 19  1  0  0  0
 19 20  2  0  0  0
 19 22  1  0  0  0
 20 21  1  0  0  0
 21 36  1  0  0  0
 22 23  1  0  0  0
 22 37  1  0  0  0
 23 24  1  0  0  0
 23 38  1  0  0  0
 23 39  1  0  0  0
 24 25  1  0  0  0
 24 40  1  0  0  0
 24 41  1  0  0  0
 25 26  2  0  0  0
 25 27  2  0  0  0
 25 28  1  0  0  0
 28 42  1  0  0  0
 28 43  1  0  0  0
 28 44  1  0  0  0
M  END
> <s_m_entry_id>
268

> <i_f3d_flags>
0

> <r_lp_tautomer_probability>
1

> <r_epik_Ionization_Penalty>
  0.0000

> <r_epik_State_Penalty>
  0.0000

> <i_epik_Tot_Q>
0

> <s_m_job_name>
glide-dock_SP_p38_core_cons_top_1

> <r_i_docking_score>
-6.69608470688143

> <r_i_glide_gscore>
-6.69608470688143

> <r_i_glide_emodel>
-46.4758533571179

$$$$
lig_p38a_2aa
                    3D
 Schrodinger Suite 2021-4.
 43 45  0  0  1  0            999 V2000
   32.6990   34.7330   14.3879 F   0  0  0  0  0  0
   33.4413   34.9164   15.5189 C   0  0  0  0  0  0
   34.8418   34.9326   15.4892 C   0  0  0  0  0  0
   35.5829   35.1487   16.6526 C   0  0  0  0  0  0
   36.9364   35.2156   16.5822 F   0  0  0  0  0  0
   34.9308   35.2493   17.8946 C   0  0  0  0  0  0
   33.5282   35.2622   17.9172 C   0  0  0  0  0  0
   32.8042   35.1502   16.7299 C   0  0  0  0  0  0
   35.6884   35.2445   19.0460 O   0  0  0  0  0  0
   35.1677   35.8287   20.1391 C   0  0  0  0  0  0
   35.2485   37.1671   20.2617 C   0  0  0  0  0  0
   34.5532   35.0070   21.1789 C   0  0  0  0  0  0
   34.3263   33.8073   20.9666 O   0  0  0  0  0  0
   34.2219   35.6275   22.3457 N   0  0  0  0  0  0
   33.7160   34.8277   23.4739 C   0  0  0  0  0  0
   34.3083   37.0432   22.5319 C   0  0  0  0  0  0
   34.8063   37.8234   21.4761 C   0  0  0  0  0  0
   33.9207   37.6355   23.6813 N   0  0  0  0  0  0
   34.0074   38.9532   23.7659 C   0  0  0  0  0  0
   34.4685   39.7874   22.8286 N   0  0  0  0  0  0
   34.8506   39.2235   21.6662 C   0  0  0  0  0  0
   33.5977   39.5491   24.9484 N   0  0  0  0  0  0
   32.9343   38.9170   26.0625 C   0  0  0  0  0  0
   31.5134   38.4483   25.6595 C   0  0  0  0  0  0
   30.9508   37.5881   26.6259 O   0  0  0  0  0  0
   32.9141   39.9119   27.2446 C   0  0  0  0  0  0
   32.5785   39.3129   28.4740 O   0  0  0  0  0  0
   35.3613   34.7493   14.5774 H   0  0  0  0  0  0
   32.9682   35.3134   18.8485 H   0  0  0  0  0  0
   31.7200   35.1495   16.7601 H   0  0  0  0  0  0
   35.7336   37.7738   19.5072 H   0  0  0  0  0  0
   33.6403   33.7505   23.2820 H   0  0  0  0  0  0
   34.3679   34.9533   24.3384 H   0  0  0  0  0  0
   32.7205   35.1765   23.7517 H   0  0  0  0  0  0
   35.2161   39.8872   20.9016 H   0  0  0  0  0  0
   33.7480   40.5528   25.0083 H   0  0  0  0  0  0
   33.5357   38.0378   26.3437 H   0  0  0  0  0  0
   31.5413   37.8907   24.7192 H   0  0  0  0  0  0
   30.8554   39.3038   25.5011 H   0  0  0  0  0  0
   30.1067   37.2883   26.3285 H   0  0  0  0  0  0
   33.9097   40.3421   27.3741 H   0  0  0  0  0  0
   32.2235   40.7348   27.0424 H   0  0  0  0  0  0
   32.4902   39.9918   29.1254 H   0  0  0  0  0  0
  1  2  1  0  0  0
  2  8  1  0  0  0
  2  3  2  0  0  0
  3  4  1  0  0  0
  3 28  1  0  0  0
  4  5  1  0  0  0
  4  6  2  0  0  0
  6  7  1  0  0  0
  6  9  1  0  0  0
  7  8  2  0  0  0
  7 29  1  0  0  0
  8 30  1  0  0  0
  9 10  1  0  0  0
 10 11  2  0  0  0
 10 12  1  0  0  0
 11 17  1  0  0  0
 11 31  1  0  0  0
 12 13  2  0  0  0
 12 14  1  0  0  0
 14 15  1  0  0  0
 14 16  1  0  0  0
 15 32  1  0  0  0
 15 33  1  0  0  0
 15 34  1  0  0  0
 16 17  1  0  0  0
 16 18  2  0  0  0
 17 21  2  0  0  0
 18 19  1  0  0  0
 19 20  2  0  0  0
 19 22  1  0  0  0
 20 21  1  0  0  0
 21 35  1  0  0  0
 22 23  1  0  0  0
 22 36  1  0  0  0
 23 24  1  0  0  0
 23 26  1  0  0  0
 23 37  1  0  0  0
 24 25  1  0  0  0
 24 38  1  0  0  0
 24 39  1  0  0  0
 25 40  1  0  0  0
 26 27  1  0  0  0
 26 41  1  0  0  0
 26 42  1  0  0  0
 27 43  1  0  0  0
M  END
> <s_m_entry_id>
283

> <i_f3d_flags>
0

> <r_lp_tautomer_probability>
1

> <r_epik_Ionization_Penalty>
  0.0000

> <r_epik_State_Penalty>
  0.0000

> <i_epik_Tot_Q>
0

> <s_m_job_name>
glide-dock_SP_p38_core_cons_top_1

> <r_i_docking_score>
-6.16213567826618

> <r_i_glide_gscore>
-6.16213567826618

> <r_i_glide_emodel>
-40.0720538433517

$$$$
lig_p38a_2ff
                    3D
 Schrodinger Suite 2021-4.
 49 52  0  0  1  0            999 V2000
   32.7402   34.7492   14.3779 F   0  0  0  0  0  0
   33.4621   34.9342   15.5082 C   0  0  0  0  0  0
   34.8615   34.9241   15.4891 C   0  0  0  0  0  0
   35.6070   35.1493   16.6538 C   0  0  0  0  0  0
   36.9577   35.1940   16.5773 F   0  0  0  0  0  0
   34.9493   35.2299   17.8971 C   0  0  0  0  0  0
   33.5377   35.2301   17.9234 C   0  0  0  0  0  0
   32.8157   35.1493   16.7235 C   0  0  0  0  0  0
   35.7026   35.2274   19.0424 O   0  0  0  0  0  0
   35.1810   35.8240   20.1509 C   0  0  0  0  0  0
   35.2703   37.1589   20.2653 C   0  0  0  0  0  0
   34.5524   34.9944   21.1815 C   0  0  0  0  0  0
   34.3185   33.8041   20.9789 O   0  0  0  0  0  0
   34.2231   35.6189   22.3485 N   0  0  0  0  0  0
   33.6787   34.8232   23.4606 C   0  0  0  0  0  0
   34.3117   37.0401   22.5284 C   0  0  0  0  0  0
   34.8137   37.8288   21.4738 C   0  0  0  0  0  0
   33.9187   37.6397   23.6699 N   0  0  0  0  0  0
   33.9959   38.9660   23.7590 C   0  0  0  0  0  0
   34.4531   39.7945   22.8191 N   0  0  0  0  0  0
   34.8585   39.2235   21.6674 C   0  0  0  0  0  0
   33.5504   39.5493   24.9288 N   0  0  0  0  0  0
   32.9857   38.8215   26.0606 C   0  0  2  0  0  0
   31.5751   38.2695   25.7561 C   0  0  0  0  0  0
   31.0404   37.4674   26.9510 C   0  0  0  0  0  0
   30.9955   38.3389   28.2146 C   0  0  1  0  0  0
   30.5569   37.5580   29.3054 O   0  0  0  0  0  0
   32.3778   38.9397   28.5251 C   0  0  0  0  0  0
   32.9378   39.7119   27.3166 C   0  0  0  0  0  0
   33.6496   37.9809   26.2711 H   0  0  0  0  0  0
   30.2839   39.1489   28.0661 H   0  0  0  0  0  0
   35.3547   34.7489   14.5591 H   0  0  0  0  0  0
   32.9813   35.2891   18.8468 H   0  0  0  0  0  0
   31.7394   35.1548   16.7583 H   0  0  0  0  0  0
   35.7373   37.7541   19.4934 H   0  0  0  0  0  0
   34.1002   35.1457   24.4134 H   0  0  0  0  0  0
   32.5969   34.9495   23.5129 H   0  0  0  0  0  0
   33.8883   33.7544   23.3873 H   0  0  0  0  0  0
   35.2345   39.8836   20.9011 H   0  0  0  0  0  0
   33.6916   40.5469   25.0383 H   0  0  0  0  0  0
   30.8926   39.0895   25.5256 H   0  0  0  0  0  0
   31.5859   37.6247   24.8779 H   0  0  0  0  0  0
   31.6815   36.6008   27.1198 H   0  0  0  0  0  0
   30.0514   37.0727   26.7239 H   0  0  0  0  0  0
   29.6441   37.3388   29.1737 H   0  0  0  0  0  0
   33.0722   38.1440   28.7986 H   0  0  0  0  0  0
   32.3105   39.6039   29.3877 H   0  0  0  0  0  0
   33.9358   40.0844   27.5515 H   0  0  0  0  0  0
   32.3187   40.5898   27.1264 H   0  0  0  0  0  0
  1  2  1  0  0  0
  2  8  1  0  0  0
  2  3  2  0  0  0
  3  4  1  0  0  0
  3 32  1  0  0  0
  4  5  1  0  0  0
  4  6  2  0  0  0
  6  7  1  0  0  0
  6  9  1  0  0  0
  7  8  2  0  0  0
  7 33  1  0  0  0
  8 34  1  0  0  0
  9 10  1  0  0  0
 10 11  2  0  0  0
 10 12  1  0  0  0
 11 17  1  0  0  0
 11 35  1  0  0  0
 12 13  2  0  0  0
 12 14  1  0  0  0
 14 15  1  0  0  0
 14 16  1  0  0  0
 15 36  1  0  0  0
 15 37  1  0  0  0
 15 38  1  0  0  0
 16 17  1  0  0  0
 16 18  2  0  0  0
 17 21  2  0  0  0
 18 19  1  0  0  0
 19 20  2  0  0  0
 19 22  1  0  0  0
 20 21  1  0  0  0
 21 39  1  0  0  0
 22 23  1  0  0  0
 22 40  1  0  0  0
 23 30  1  0  0  0
 23 29  1  0  0  0
 23 24  1  0  0  0
 24 25  1  0  0  0
 24 41  1  0  0  0
 24 42  1  0  0  0
 25 26  1  0  0  0
 25 43  1  0  0  0
 25 44  1  0  0  0
 26 31  1  0  0  0
 26 27  1  0  0  0
 26 28  1  0  0  0
 27 45  1  0  0  0
 28 29  1  0  0  0
 28 46  1  0  0  0
 28 47  1  0  0  0
 29 48  1  0  0  0
 29 49  1  0  0  0
M  END
> <s_m_entry_id>
271

> <i_f3d_flags>
0

> <r_lp_tautomer_probability>
1

> <r_epik_Ionization_Penalty>
  0.0000

> <r_epik_State_Penalty>
  0.0000

> <i_epik_Tot_Q>
0

> <s_m_job_name>
glide-dock_SP_p38_core_cons_top_1

> <r_i_docking_score>
-6.58923314064335

> <r_i_glide_gscore>
-6.58923314064335

> <r_i_glide_emodel>
-38.0193615035028

$$$$
lig_p38a_2n
                    3D
 Schrodinger Suite 2021-4.
 53 56  0  0  1  0            999 V2000
   32.7464   34.7448   14.3800 F   0  0  0  0  0  0
   33.4685   34.9357   15.5090 C   0  0  0  0  0  0
   32.8206   35.1493   16.7233 C   0  0  0  0  0  0
   33.5406   35.1917   17.9260 C   0  0  0  0  0  0
   34.9517   35.2132   17.9009 C   0  0  0  0  0  0
   35.6109   35.1494   16.6564 C   0  0  0  0  0  0
   36.9610   35.2088   16.5820 F   0  0  0  0  0  0
   34.8665   34.9256   15.4891 C   0  0  0  0  0  0
   35.7020   35.2239   19.0485 O   0  0  0  0  0  0
   35.1739   35.8244   20.1523 C   0  0  0  0  0  0
   35.2611   37.1596   20.2687 C   0  0  0  0  0  0
   34.5520   34.9950   21.1912 C   0  0  0  0  0  0
   34.3568   33.7950   21.0071 O   0  0  0  0  0  0
   34.1974   35.6228   22.3520 N   0  0  0  0  0  0
   33.6951   34.8140   23.4840 C   0  0  0  0  0  0
   34.8491   34.2857   24.3609 C   0  0  0  0  0  0
   34.3631   33.6229   25.6610 C   0  0  0  0  0  0
   34.1521   34.5859   26.6710 O   0  0  0  0  0  0
   34.2887   37.0446   22.5290 C   0  0  0  0  0  0
   34.7988   37.8298   21.4739 C   0  0  0  0  0  0
   33.9087   37.6470   23.6742 N   0  0  0  0  0  0
   34.0152   38.9673   23.7687 C   0  0  0  0  0  0
   34.4743   39.7936   22.8286 N   0  0  0  0  0  0
   34.8610   39.2233   21.6669 C   0  0  0  0  0  0
   33.6208   39.5497   24.9529 N   0  0  0  0  0  0
   33.0739   38.8661   26.1187 C   0  0  0  0  0  0
   33.1531   39.7773   27.3535 C   0  0  0  0  0  0
   32.5223   39.0909   28.5729 C   0  0  0  0  0  0
   31.1740   38.7424   28.2834 O   0  0  0  0  0  0
   31.0528   37.8178   27.2084 C   0  0  0  0  0  0
   31.6079   38.4421   25.9164 C   0  0  0  0  0  0
   31.7440   35.1502   16.7576 H   0  0  0  0  0  0
   32.9835   35.2348   18.8491 H   0  0  0  0  0  0
   35.3522   34.7489   14.5557 H   0  0  0  0  0  0
   35.7273   37.7562   19.4974 H   0  0  0  0  0  0
   33.0031   35.3882   24.0999 H   0  0  0  0  0  0
   33.0909   33.9771   23.1303 H   0  0  0  0  0  0
   35.4039   33.5477   23.7820 H   0  0  0  0  0  0
   35.5578   35.0814   24.5929 H   0  0  0  0  0  0
   33.4430   33.0638   25.4911 H   0  0  0  0  0  0
   35.1104   32.9187   26.0278 H   0  0  0  0  0  0
   34.9942   34.7507   27.0869 H   0  0  0  0  0  0
   35.2459   39.8809   20.9030 H   0  0  0  0  0  0
   33.7514   40.5510   25.0380 H   0  0  0  0  0  0
   33.6773   37.9760   26.3084 H   0  0  0  0  0  0
   34.1896   40.0396   27.5685 H   0  0  0  0  0  0
   32.6244   40.7130   27.1613 H   0  0  0  0  0  0
   33.0893   38.2028   28.8555 H   0  0  0  0  0  0
   32.5330   39.7674   29.4283 H   0  0  0  0  0  0
   31.5775   36.8915   27.4471 H   0  0  0  0  0  0
   30.0004   37.5618   27.0886 H   0  0  0  0  0  0
   30.9994   39.3071   25.6464 H   0  0  0  0  0  0
   31.5199   37.7267   25.0988 H   0  0  0  0  0  0
  1  2  1  0  0  0
  2  8  1  0  0  0
  2  3  2  0  0  0
  3  4  1  0  0  0
  3 32  1  0  0  0
  4  5  2  0  0  0
  4 33  1  0  0  0
  5  6  1  0  0  0
  5  9  1  0  0  0
  6  7  1  0  0  0
  6  8  2  0  0  0
  8 34  1  0  0  0
  9 10  1  0  0  0
 10 11  2  0  0  0
 10 12  1  0  0  0
 11 20  1  0  0  0
 11 35  1  0  0  0
 12 13  2  0  0  0
 12 14  1  0  0  0
 14 15  1  0  0  0
 14 19  1  0  0  0
 15 16  1  0  0  0
 15 36  1  0  0  0
 15 37  1  0  0  0
 16 17  1  0  0  0
 16 38  1  0  0  0
 16 39  1  0  0  0
 17 18  1  0  0  0
 17 40  1  0  0  0
 17 41  1  0  0  0
 18 42  1  0  0  0
 19 20  1  0  0  0
 19 21  2  0  0  0
 20 24  2  0  0  0
 21 22  1  0  0  0
 22 23  2  0  0  0
 22 25  1  0  0  0
 23 24  1  0  0  0
 24 43  1  0  0  0
 25 26  1  0  0  0
 25 44  1  0  0  0
 26 31  1  0  0  0
 26 27  1  0  0  0
 26 45  1  0  0  0
 27 28  1  0  0  0
 27 46  1  0  0  0
 27 47  1  0  0  0
 28 29  1  0  0  0
 28 48  1  0  0  0
 28 49  1  0  0  0
 29 30  1  0  0  0
 30 31  1  0  0  0
 30 50  1  0  0  0
 30 51  1  0  0  0
 31 52  1  0  0  0
 31 53  1  0  0  0
M  END
> <s_m_entry_id>
258

> <i_f3d_flags>
0

> <r_lp_tautomer_probability>
1

> <r_epik_Ionization_Penalty>
  0.0000

> <r_epik_State_Penalty>
  0.0000

> <i_epik_Tot_Q>
0

> <s_m_job_name>
glide-dock_SP_p38_core_cons_top_1

> <r_i_docking_score>
-7.04264245892906

> <r_i_glide_gscore>
-7.04264245892906

> <r_i_glide_emodel>
-54.5544217696428

$$$$
lig_p38a_2x
                    3D
 Schrodinger Suite 2021-4.
 43 46  0  0  1  0            999 V2000
   32.8678   34.5179   14.3669 F   0  0  0  0  0  0
   33.5632   34.8290   15.4847 C   0  0  0  0  0  0
   34.9611   34.8256   15.4917 C   0  0  0  0  0  0
   35.6753   35.1493   16.6516 C   0  0  0  0  0  0
   37.0293   35.2076   16.5973 F   0  0  0  0  0  0
   34.9913   35.2599   17.8783 C   0  0  0  0  0  0
   33.5791   35.2708   17.8774 C   0  0  0  0  0  0
   32.8855   35.1500   16.6650 C   0  0  0  0  0  0
   35.7257   35.2472   19.0366 O   0  0  0  0  0  0
   35.1838   35.8272   20.1388 C   0  0  0  0  0  0
   35.2690   37.1605   20.2635 C   0  0  0  0  0  0
   34.5398   34.9939   21.1561 C   0  0  0  0  0  0
   34.3192   33.8024   20.9450 O   0  0  0  0  0  0
   34.1758   35.6193   22.3140 N   0  0  0  0  0  0
   33.5856   34.8299   23.4060 C   0  0  0  0  0  0
   34.2779   37.0384   22.5110 C   0  0  0  0  0  0
   34.8017   37.8282   21.4670 C   0  0  0  0  0  0
   33.8870   37.6378   23.6560 N   0  0  0  0  0  0
   34.0032   38.9601   23.7596 C   0  0  0  0  0  0
   34.4803   39.7881   22.8299 N   0  0  0  0  0  0
   34.8642   39.2197   21.6668 C   0  0  0  0  0  0
   33.5948   39.5498   24.9373 N   0  0  0  0  0  0
   32.9692   38.8398   26.0482 C   0  0  2  0  0  0
   31.5276   38.4404   25.7966 C   0  0  0  0  0  0
   31.0386   38.1887   27.2183 C   0  0  0  0  0  0
   31.7875   39.0709   28.0523 O   0  0  0  0  0  0
   32.8205   39.6981   27.3006 C   0  0  0  0  0  0
   33.5594   37.9570   26.3011 H   0  0  0  0  0  0
   35.5060   34.5385   14.6255 H   0  0  0  0  0  0
   33.0033   35.3630   18.7865 H   0  0  0  0  0  0
   31.8041   35.1593   16.6767 H   0  0  0  0  0  0
   35.7538   37.7548   19.4996 H   0  0  0  0  0  0
   32.5188   35.0421   23.4844 H   0  0  0  0  0  0
   33.7033   33.7526   23.2916 H   0  0  0  0  0  0
   34.0531   35.0876   24.3578 H   0  0  0  0  0  0
   35.2570   39.8772   20.9081 H   0  0  0  0  0  0
   33.7510   40.5460   25.0477 H   0  0  0  0  0  0
   30.9643   39.2626   25.3505 H   0  0  0  0  0  0
   31.4150   37.5681   25.1503 H   0  0  0  0  0  0
   29.9675   38.3492   27.3234 H   0  0  0  0  0  0
   31.2559   37.1664   27.5206 H   0  0  0  0  0  0
   33.7438   39.7769   27.8736 H   0  0  0  0  0  0
   32.4851   40.7065   27.0524 H   0  0  0  0  0  0
  1  2  1  0  0  0
  2  8  1  0  0  0
  2  3  2  0  0  0
  3  4  1  0  0  0
  3 29  1  0  0  0
  4  5  1  0  0  0
  4  6  2  0  0  0
  6  7  1  0  0  0
  6  9  1  0  0  0
  7  8  2  0  0  0
  7 30  1  0  0  0
  8 31  1  0  0  0
  9 10  1  0  0  0
 10 11  2  0  0  0
 10 12  1  0  0  0
 11 17  1  0  0  0
 11 32  1  0  0  0
 12 13  2  0  0  0
 12 14  1  0  0  0
 14 15  1  0  0  0
 14 16  1  0  0  0
 15 33  1  0  0  0
 15 34  1  0  0  0
 15 35  1  0  0  0
 16 17  1  0  0  0
 16 18  2  0  0  0
 17 21  2  0  0  0
 18 19  1  0  0  0
 19 20  2  0  0  0
 19 22  1  0  0  0
 20 21  1  0  0  0
 21 36  1  0  0  0
 22 23  1  0  0  0
 22 37  1  0  0  0
 23 28  1  0  0  0
 23 27  1  0  0  0
 23 24  1  0  0  0
 24 25  1  0  0  0
 24 38  1  0  0  0
 24 39  1  0  0  0
 25 26  1  0  0  0
 25 40  1  0  0  0
 25 41  1  0  0  0
 26 27  1  0  0  0
 27 42  1  0  0  0
 27 43  1  0  0  0
M  END
> <s_m_entry_id>
260

> <i_f3d_flags>
0

> <r_lp_tautomer_probability>
1

> <r_epik_Ionization_Penalty>
  0.0000

> <r_epik_State_Penalty>
  0.0000

> <i_epik_Tot_Q>
0

> <s_m_job_name>
glide-dock_SP_p38_core_cons_top_1

> <r_i_docking_score>
-6.80362854889194

> <r_i_glide_gscore>
-6.80362854889194

> <r_i_glide_emodel>
-45.0467058057781

$$$$
lig_p38a_3flw
                    3D
 Schrodinger Suite 2021-4.
 49 51  0  0  1  0            999 V2000
   38.9521   37.1424   15.3273 F   0  0  0  0  0  0
   38.1547   36.4778   16.1935 C   0  0  0  0  0  0
   36.8905   36.0415   15.7768 C   0  0  0  0  0  0
   35.9526   35.5563   16.6956 C   0  0  0  0  0  0
   34.7425   35.1207   16.2723 F   0  0  0  0  0  0
   36.2596   35.5935   18.0644 C   0  0  0  0  0  0
   37.5664   35.9509   18.4863 C   0  0  0  0  0  0
   38.5311   36.3409   17.5381 C   0  0  0  0  0  0
   35.3278   35.1476   18.9467 O   0  0  0  0  0  0
   35.1273   35.8051   20.1277 C   0  0  0  0  0  0
   35.2090   37.1517   20.2486 C   0  0  0  0  0  0
   34.5535   34.9859   21.1910 C   0  0  0  0  0  0
   34.3333   33.7868   21.0187 O   0  0  0  0  0  0
   34.2536   35.6097   22.3622 N   0  0  0  0  0  0
   33.7783   34.7620   23.4688 C   0  0  0  0  0  0
   34.3369   37.0272   22.5497 C   0  0  0  0  0  0
   34.8138   37.8159   21.4840 C   0  0  0  0  0  0
   33.9564   37.6275   23.6960 N   0  0  0  0  0  0
   34.0324   38.9568   23.7788 C   0  0  0  0  0  0
   34.4758   39.7830   22.8291 N   0  0  0  0  0  0
   34.8650   39.2129   21.6674 C   0  0  0  0  0  0
   33.5976   39.5494   24.9515 N   0  0  0  0  0  0
   33.0689   38.8325   26.1097 C   0  0  0  0  0  0
   31.6327   38.3190   25.8427 C   0  0  0  0  0  0
   31.2177   37.1512   26.7549 C   0  0  0  0  0  0
   31.9089   35.9795   26.3795 O   0  0  0  0  0  0
   33.1202   39.7242   27.3692 C   0  0  0  0  0  0
   34.5419   40.0717   27.8295 C   0  0  0  0  0  0
   34.4830   40.7961   29.0403 O   0  0  0  0  0  0
   36.6145   36.2043   14.7511 H   0  0  0  0  0  0
   37.8365   35.9203   19.5319 H   0  0  0  0  0  0
   39.5170   36.6468   17.8552 H   0  0  0  0  0  0
   35.5346   37.7762   19.4290 H   0  0  0  0  0  0
   34.4671   33.9344   23.6462 H   0  0  0  0  0  0
   33.6778   35.2867   24.4186 H   0  0  0  0  0  0
   32.7994   34.3485   23.2287 H   0  0  0  0  0  0
   35.2153   39.8712   20.8889 H   0  0  0  0  0  0
   33.6900   40.5562   25.0279 H   0  0  0  0  0  0
   33.7201   37.9729   26.2748 H   0  0  0  0  0  0
   31.5208   37.9939   24.8082 H   0  0  0  0  0  0
   30.9292   39.1455   25.9613 H   0  0  0  0  0  0
   30.1523   36.9572   26.6618 H   0  0  0  0  0  0
   31.4049   37.3682   27.8064 H   0  0  0  0  0  0
   32.7484   36.2249   26.0259 H   0  0  0  0  0  0
   32.5491   40.6375   27.1959 H   0  0  0  0  0  0
   32.6211   39.2161   28.1929 H   0  0  0  0  0  0
   35.1264   39.1649   27.9899 H   0  0  0  0  0  0
   35.0678   40.6695   27.0856 H   0  0  0  0  0  0
   33.9354   41.5570   28.9140 H   0  0  0  0  0  0
  1  2  1  0  0  0
  2  8  1  0  0  0
  2  3  2  0  0  0
  3  4  1  0  0  0
  3 30  1  0  0  0
  4  5  1  0  0  0
  4  6  2  0  0  0
  6  7  1  0  0  0
  6  9  1  0  0  0
  7  8  2  0  0  0
  7 31  1  0  0  0
  8 32  1  0  0  0
  9 10  1  0  0  0
 10 11  2  0  0  0
 10 12  1  0  0  0
 11 17  1  0  0  0
 11 33  1  0  0  0
 12 13  2  0  0  0
 12 14  1  0  0  0
 14 15  1  0  0  0
 14 16  1  0  0  0
 15 34  1  0  0  0
 15 35  1  0  0  0
 15 36  1  0  0  0
 16 17  1  0  0  0
 16 18  2  0  0  0
 17 21  2  0  0  0
 18 19  1  0  0  0
 19 20  2  0  0  0
 19 22  1  0  0  0
 20 21  1  0  0  0
 21 37  1  0  0  0
 22 23  1  0  0  0
 22 38  1  0  0  0
 23 24  1  0  0  0
 23 27  1  0  0  0
 23 39  1  0  0  0
 24 25  1  0  0  0
 24 40  1  0  0  0
 24 41  1  0  0  0
 25 26  1  0  0  0
 25 42  1  0  0  0
 25 43  1  0  0  0
 26 44  1  0  0  0
 27 28  1  0  0  0
 27 45  1  0  0  0
 27 46  1  0  0  0
 28 29  1  0  0  0
 28 47  1  0  0  0
 28 48  1  0  0  0
 29 49  1  0  0  0
M  END
> <s_m_entry_id>
273

> <i_f3d_flags>
0

> <r_lp_tautomer_probability>
1

> <r_epik_Ionization_Penalty>
  0.0000

> <r_epik_State_Penalty>
  0.0000

> <i_epik_Tot_Q>
0

> <s_m_job_name>
glide-dock_SP_p38_core_cons_top_1

> <r_i_docking_score>
-6.50976783414444

> <r_i_glide_gscore>
-6.50976783414444

> <r_i_glide_emodel>
-48.2958484496421

$$$$
lig_p38a_3flz
                    3D
 Schrodinger Suite 2021-4.
 46 49  0  0  1  0            999 V2000
   37.7132   35.9695   18.8642 C   0  0  0  0  0  0
   38.8343   36.3367   18.1168 C   0  0  0  0  0  0
   38.7453   36.5510   16.7363 C   0  0  0  0  0  0
   37.5296   36.3489   16.0720 C   0  0  0  0  0  0
   36.3991   35.9485   16.8084 C   0  0  0  0  0  0
   36.4796   35.7840   18.2061 C   0  0  0  0  0  0
   35.4166   35.2684   18.9020 O   0  0  0  0  0  0
   35.1399   35.8176   20.1207 C   0  0  0  0  0  0
   34.5513   34.9893   21.1681 C   0  0  0  0  0  0
   34.3444   33.7906   20.9805 O   0  0  0  0  0  0
   34.2415   35.6114   22.3463 N   0  0  0  0  0  0
   33.7287   34.8275   23.4798 C   0  0  0  0  0  0
   35.2316   37.1588   20.2570 C   0  0  0  0  0  0
   34.8183   37.8257   21.4827 C   0  0  0  0  0  0
   34.3372   37.0317   22.5397 C   0  0  0  0  0  0
   34.8561   39.2210   21.6684 C   0  0  0  0  0  0
   34.4719   39.7911   22.8289 N   0  0  0  0  0  0
   34.0470   38.9621   23.7758 C   0  0  0  0  0  0
   33.9633   37.6350   23.6854 N   0  0  0  0  0  0
   33.6466   39.5493   24.9572 N   0  0  0  0  0  0
   33.0979   38.8180   26.0905 C   0  0  0  0  0  0
   33.0907   39.6950   27.3468 C   0  0  0  0  0  0
   32.4431   38.9419   28.5185 C   0  0  0  0  0  0
   31.1283   38.5259   28.1643 O   0  0  0  0  0  0
   31.1061   37.6212   27.0660 C   0  0  0  0  0  0
   31.6698   38.3120   25.8170 C   0  0  0  0  0  0
   37.8232   35.7633   19.9214 H   0  0  0  0  0  0
   39.7858   36.3500   18.6204 H   0  0  0  0  0  0
   39.6108   36.9095   16.2155 H   0  0  0  0  0  0
   37.4747   36.5157   15.0094 H   0  0  0  0  0  0
   35.4666   35.7710   16.3014 H   0  0  0  0  0  0
   34.3974   34.9336   24.3351 H   0  0  0  0  0  0
   32.7456   35.1938   23.7822 H   0  0  0  0  0  0
   33.6243   33.7601   23.2887 H   0  0  0  0  0  0
   35.5699   37.8033   19.4618 H   0  0  0  0  0  0
   35.1964   39.8850   20.8914 H   0  0  0  0  0  0
   33.7518   40.5542   25.0495 H   0  0  0  0  0  0
   33.7437   37.9596   26.2812 H   0  0  0  0  0  0
   34.1089   39.9876   27.6079 H   0  0  0  0  0  0
   32.5389   40.6176   27.1596 H   0  0  0  0  0  0
   33.0444   38.0761   28.8011 H   0  0  0  0  0  0
   32.3853   39.5907   29.3930 H   0  0  0  0  0  0
   31.6793   36.7240   27.3039 H   0  0  0  0  0  0
   30.0809   37.3005   26.8881 H   0  0  0  0  0  0
   31.0213   39.1426   25.5332 H   0  0  0  0  0  0
   31.6558   37.6097   24.9824 H   0  0  0  0  0  0
  1  6  1  0  0  0
  1  2  2  0  0  0
  1 27  1  0  0  0
  2  3  1  0  0  0
  2 28  1  0  0  0
  3  4  2  0  0  0
  3 29  1  0  0  0
  4  5  1  0  0  0
  4 30  1  0  0  0
  5  6  2  0  0  0
  5 31  1  0  0  0
  6  7  1  0  0  0
  7  8  1  0  0  0
  8  9  1  0  0  0
  8 13  2  0  0  0
  9 10  2  0  0  0
  9 11  1  0  0  0
 11 15  1  0  0  0
 11 12  1  0  0  0
 12 32  1  0  0  0
 12 33  1  0  0  0
 12 34  1  0  0  0
 13 14  1  0  0  0
 13 35  1  0  0  0
 14 15  2  0  0  0
 14 16  1  0  0  0
 15 19  1  0  0  0
 16 17  2  0  0  0
 16 36  1  0  0  0
 17 18  1  0  0  0
 18 19  2  0  0  0
 18 20  1  0  0  0
 20 21  1  0  0  0
 20 37  1  0  0  0
 21 26  1  0  0  0
 21 22  1  0  0  0
 21 38  1  0  0  0
 22 23  1  0  0  0
 22 39  1  0  0  0
 22 40  1  0  0  0
 23 24  1  0  0  0
 23 41  1  0  0  0
 23 42  1  0  0  0
 24 25  1  0  0  0
 25 26  1  0  0  0
 25 43  1  0  0  0
 25 44  1  0  0  0
 26 45  1  0  0  0
 26 46  1  0  0  0
M  END
> <s_m_entry_id>
261

> <i_f3d_flags>
0

> <r_lp_tautomer_probability>
1

> <r_epik_Ionization_Penalty>
  0.0000

> <r_epik_State_Penalty>
  0.0000

> <i_epik_Tot_Q>
0

> <s_m_job_name>
glide-dock_SP_p38_core_cons_top_1

> <r_i_docking_score>
-6.77435775292038

> <r_i_glide_gscore>
-6.77435775292038

> <r_i_glide_emodel>
-41.7958607893009

$$$$
lig_p38a_2y
                    3D
 Schrodinger Suite 2021-4.
 45 47  0  0  1  0            999 V2000
   32.7520   34.6576   14.3842 F   0  0  0  0  0  0
   33.4705   34.8925   15.5070 C   0  0  0  0  0  0
   34.8673   34.8945   15.4888 C   0  0  0  0  0  0
   35.6143   35.1494   16.6458 C   0  0  0  0  0  0
   36.9647   35.2038   16.5649 F   0  0  0  0  0  0
   34.9546   35.2412   17.8880 C   0  0  0  0  0  0
   33.5437   35.2492   17.9131 C   0  0  0  0  0  0
   32.8254   35.1493   16.7129 C   0  0  0  0  0  0
   35.7090   35.2436   19.0326 O   0  0  0  0  0  0
   35.1780   35.8278   20.1418 C   0  0  0  0  0  0
   35.2608   37.1618   20.2624 C   0  0  0  0  0  0
   34.5522   34.9937   21.1712 C   0  0  0  0  0  0
   34.3453   33.7984   20.9724 O   0  0  0  0  0  0
   34.1930   35.6166   22.3313 N   0  0  0  0  0  0
   33.6393   34.8257   23.4400 C   0  0  0  0  0  0
   34.2861   37.0389   22.5193 C   0  0  0  0  0  0
   34.8007   37.8290   21.4694 C   0  0  0  0  0  0
   33.9000   37.6365   23.6662 N   0  0  0  0  0  0
   34.0146   38.9597   23.7677 C   0  0  0  0  0  0
   34.4769   39.7877   22.8295 N   0  0  0  0  0  0
   34.8635   39.2220   21.6664 C   0  0  0  0  0  0
   33.6265   39.5493   24.9535 N   0  0  0  0  0  0
   32.9805   38.8701   26.0741 C   0  0  0  0  0  0
   33.7421   39.0351   27.4089 C   0  0  0  0  0  0
   35.2549   38.7665   27.2869 C   0  0  0  0  0  0
   33.5441   40.3478   27.8886 O   0  0  0  0  0  0
   33.1240   38.1098   28.4719 C   0  0  0  0  0  0
   35.3520   34.6994   14.5593 H   0  0  0  0  0  0
   32.9837   35.3284   18.8315 H   0  0  0  0  0  0
   31.7496   35.1486   16.7486 H   0  0  0  0  0  0
   35.7293   37.7599   19.4961 H   0  0  0  0  0  0
   33.7476   33.7458   23.3245 H   0  0  0  0  0  0
   34.1443   35.0816   24.3726 H   0  0  0  0  0  0
   32.5766   35.0451   23.5631 H   0  0  0  0  0  0
   35.2433   39.8830   20.9029 H   0  0  0  0  0  0
   33.7510   40.5518   25.0292 H   0  0  0  0  0  0
   32.8735   37.8060   25.8658 H   0  0  0  0  0  0
   31.9624   39.2515   26.1741 H   0  0  0  0  0  0
   35.4478   37.7782   26.8642 H   0  0  0  0  0  0
   35.7453   38.8132   28.2602 H   0  0  0  0  0  0
   35.7505   39.4982   26.6512 H   0  0  0  0  0  0
   33.7517   40.9711   27.2033 H   0  0  0  0  0  0
   33.2374   37.0646   28.1885 H   0  0  0  0  0  0
   33.6019   38.2417   29.4431 H   0  0  0  0  0  0
   32.0582   38.2961   28.6079 H   0  0  0  0  0  0
  1  2  1  0  0  0
  2  8  1  0  0  0
  2  3  2  0  0  0
  3  4  1  0  0  0
  3 28  1  0  0  0
  4  5  1  0  0  0
  4  6  2  0  0  0
  6  7  1  0  0  0
  6  9  1  0  0  0
  7  8  2  0  0  0
  7 29  1  0  0  0
  8 30  1  0  0  0
  9 10  1  0  0  0
 10 11  2  0  0  0
 10 12  1  0  0  0
 11 17  1  0  0  0
 11 31  1  0  0  0
 12 13  2  0  0  0
 12 14  1  0  0  0
 14 15  1  0  0  0
 14 16  1  0  0  0
 15 32  1  0  0  0
 15 33  1  0  0  0
 15 34  1  0  0  0
 16 17  1  0  0  0
 16 18  2  0  0  0
 17 21  2  0  0  0
 18 19  1  0  0  0
 19 20  2  0  0  0
 19 22  1  0  0  0
 20 21  1  0  0  0
 21 35  1  0  0  0
 22 23  1  0  0  0
 22 36  1  0  0  0
 23 24  1  0  0  0
 23 37  1  0  0  0
 23 38  1  0  0  0
 24 25  1  0  0  0
 24 26  1  0  0  0
 24 27  1  0  0  0
 25 39  1  0  0  0
 25 40  1  0  0  0
 25 41  1  0  0  0
 26 42  1  0  0  0
 27 43  1  0  0  0
 27 44  1  0  0  0
 27 45  1  0  0  0
M  END
> <s_m_entry_id>
269

> <i_f3d_flags>
0

> <r_lp_tautomer_probability>
1

> <r_epik_Ionization_Penalty>
  0.0000

> <r_epik_State_Penalty>
  0.0000

> <i_epik_Tot_Q>
0

> <s_m_job_name>
glide-dock_SP_p38_core_cons_top_1

> <r_i_docking_score>
-6.68978102664877

> <r_i_glide_gscore>
-6.68978102664877

> <r_i_glide_emodel>
-42.8434282172549

$$$$
lig_p38a_2v
                    3D
 Schrodinger Suite 2021-4.
 35 37  0  0  1  0            999 V2000
   33.1091   38.8121   26.0967 C   0  0  0  0  0  0
   33.6612   39.5500   24.9716 N   0  0  0  0  0  0
   34.0471   38.9691   23.7820 C   0  0  0  0  0  0
   34.4721   39.8001   22.8283 N   0  0  0  0  0  0
   34.8535   39.2231   21.6658 C   0  0  0  0  0  0
   33.9616   37.6427   23.6974 N   0  0  0  0  0  0
   34.3374   37.0397   22.5505 C   0  0  0  0  0  0
   34.8155   37.8261   21.4840 C   0  0  0  0  0  0
   34.2521   35.6196   22.3664 N   0  0  0  0  0  0
   33.7486   34.7922   23.4761 C   0  0  0  0  0  0
   34.5522   34.9958   21.1867 C   0  0  0  0  0  0
   34.3241   33.8007   21.0065 O   0  0  0  0  0  0
   35.1350   35.8146   20.1210 C   0  0  0  0  0  0
   35.2292   37.1586   20.2635 C   0  0  0  0  0  0
   35.3567   35.1917   18.9151 O   0  0  0  0  0  0
   36.2589   35.6940   18.0103 C   0  0  0  0  0  0
   37.5998   35.9575   18.3829 C   0  0  0  0  0  0
   38.5423   36.3494   17.4087 C   0  0  0  0  0  0
   35.8930   35.7949   16.6516 C   0  0  0  0  0  0
   34.6475   35.4582   16.2514 F   0  0  0  0  0  0
   36.8061   36.2833   15.7046 C   0  0  0  0  0  0
   38.1238   36.5740   16.0834 C   0  0  0  0  0  0
   38.9495   37.1493   15.1859 F   0  0  0  0  0  0
   32.8597   39.4957   26.9082 H   0  0  0  0  0  0
   33.8299   38.0839   26.4692 H   0  0  0  0  0  0
   32.2018   38.2836   25.8027 H   0  0  0  0  0  0
   33.7515   40.5554   25.0643 H   0  0  0  0  0  0
   35.2018   39.8815   20.8847 H   0  0  0  0  0  0
   34.2451   33.8209   23.5244 H   0  0  0  0  0  0
   33.9020   35.2510   24.4524 H   0  0  0  0  0  0
   32.6794   34.6174   23.3542 H   0  0  0  0  0  0
   35.5696   37.7886   19.4540 H   0  0  0  0  0  0
   37.9134   35.8342   19.4094 H   0  0  0  0  0  0
   39.5631   36.5581   17.6936 H   0  0  0  0  0  0
   36.4821   36.4693   14.6933 H   0  0  0  0  0  0
  1  2  1  0  0  0
  1 24  1  0  0  0
  1 25  1  0  0  0
  1 26  1  0  0  0
  2  3  1  0  0  0
  2 27  1  0  0  0
  3  4  1  0  0  0
  3  6  2  0  0  0
  4  5  2  0  0  0
  5  8  1  0  0  0
  5 28  1  0  0  0
  6  7  1  0  0  0
  7  8  2  0  0  0
  7  9  1  0  0  0
  8 14  1  0  0  0
  9 10  1  0  0  0
  9 11  1  0  0  0
 10 29  1  0  0  0
 10 30  1  0  0  0
 10 31  1  0  0  0
 11 12  2  0  0  0
 11 13  1  0  0  0
 13 14  2  0  0  0
 13 15  1  0  0  0
 14 32  1  0  0  0
 15 16  1  0  0  0
 16 17  1  0  0  0
 16 19  2  0  0  0
 17 18  2  0  0  0
 17 33  1  0  0  0
 18 22  1  0  0  0
 18 34  1  0  0  0
 19 20  1  0  0  0
 19 21  1  0  0  0
 21 22  2  0  0  0
 21 35  1  0  0  0
 22 23  1  0  0  0
M  END
> <s_m_entry_id>
262

> <i_f3d_flags>
0

> <r_lp_tautomer_probability>
1

> <r_epik_Ionization_Penalty>
  0.0000

> <r_epik_State_Penalty>
  0.0000

> <i_epik_Tot_Q>
0

> <s_m_job_name>
glide-dock_SP_p38_core_cons_top_1

> <r_i_docking_score>
-6.74584646967708

> <r_i_glide_gscore>
-6.74584646967708

> <r_i_glide_emodel>
-43.5281989862241

$$$$
lig_p38a_2u
                    3D
 Schrodinger Suite 2021-4.
 64 68  0  0  1  0            999 V2000
   32.9470   34.5700   14.3418 F   0  0  0  0  0  0
   33.6017   34.8545   15.4887 C   0  0  0  0  0  0
   32.8763   35.1492   16.6448 C   0  0  0  0  0  0
   33.5224   35.2897   17.8794 C   0  0  0  0  0  0
   32.7601   35.4740   18.9849 F   0  0  0  0  0  0
   34.9392   35.2497   17.9228 C   0  0  0  0  0  0
   35.6682   35.1543   16.7302 C   0  0  0  0  0  0
   35.0011   34.8720   15.5366 C   0  0  0  0  0  0
   35.6724   35.2015   19.0722 O   0  0  0  0  0  0
   35.1697   35.8080   20.1706 C   0  0  0  0  0  0
   35.2647   37.1431   20.2759 C   0  0  0  0  0  0
   34.5521   34.9864   21.2195 C   0  0  0  0  0  0
   34.3597   33.7900   21.0215 O   0  0  0  0  0  0
   34.2021   35.6137   22.3885 N   0  0  0  0  0  0
   33.6724   34.7755   23.5138 C   0  0  0  0  0  0
   34.4793   34.8764   24.8295 C   0  0  0  0  0  0
   33.9242   33.9710   25.9458 C   0  0  0  0  0  0
   32.4508   34.0489   26.0732 N   0  0  3  0  0  0
   31.6516   34.0076   24.8317 C   0  0  0  0  0  0
   32.1777   35.0232   23.8019 C   0  0  0  0  0  0
   31.6823   34.2595   27.6147 S   0  0  0  0  0  0
   30.5357   33.3413   27.6747 O   0  0  0  0  0  0
   32.7222   34.2229   28.6552 O   0  0  0  0  0  0
   31.0364   35.9644   27.4959 C   0  0  0  0  0  0
   34.2888   37.0480   22.5436 C   0  0  0  0  0  0
   34.8130   37.8219   21.4819 C   0  0  0  0  0  0
   33.9003   37.6816   23.6704 N   0  0  0  0  0  0
   34.0315   39.0032   23.7530 C   0  0  0  0  0  0
   34.4965   39.8117   22.8040 N   0  0  0  0  0  0
   34.8825   39.2181   21.6570 C   0  0  0  0  0  0
   33.6681   39.6160   24.9323 N   0  0  0  0  0  0
   33.3759   38.9517   26.1943 C   0  0  0  0  0  0
   34.6548   38.4430   26.8812 C   0  0  0  0  0  0
   34.3247   37.8509   28.2641 C   0  0  0  0  0  0
   33.6667   38.8192   29.0768 O   0  0  0  0  0  0
   32.4290   39.2701   28.5332 C   0  0  0  0  0  0
   32.6832   39.9183   27.1664 C   0  0  0  0  0  0
   31.7966   35.1534   16.6113 H   0  0  0  0  0  0
   36.7472   35.1653   16.7501 H   0  0  0  0  0  0
   35.5994   34.6446   14.6886 H   0  0  0  0  0  0
   35.7258   37.7330   19.4950 H   0  0  0  0  0  0
   33.7358   33.7174   23.2610 H   0  0  0  0  0  0
   35.5232   34.6198   24.6462 H   0  0  0  0  0  0
   34.4821   35.8855   25.2239 H   0  0  0  0  0  0
   34.1992   32.9328   25.7805 H   0  0  0  0  0  0
   34.4029   34.2502   26.8837 H   0  0  0  0  0  0
   31.6856   32.9962   24.4226 H   0  0  0  0  0  0
   30.6044   34.2114   25.0628 H   0  0  0  0  0  0
   31.9996   36.0280   24.1848 H   0  0  0  0  0  0
   31.5971   34.9397   22.8820 H   0  0  0  0  0  0
   30.6971   36.2938   28.4773 H   0  0  0  0  0  0
   31.8178   36.6150   27.1252 H   0  0  0  0  0  0
   30.1960   35.9807   26.8028 H   0  0  0  0  0  0
   35.2718   39.8618   20.8829 H   0  0  0  0  0  0
   33.8183   40.6162   24.9900 H   0  0  0  0  0  0
   32.7147   38.1190   25.9761 H   0  0  0  0  0  0
   35.1606   37.7009   26.2664 H   0  0  0  0  0  0
   35.3621   39.2652   27.0039 H   0  0  0  0  0  0
   33.7009   36.9643   28.1672 H   0  0  0  0  0  0
   35.2345   37.5309   28.7691 H   0  0  0  0  0  0
   31.7158   38.4523   28.4682 H   0  0  0  0  0  0
   31.9941   40.0011   29.2154 H   0  0  0  0  0  0
   33.3603   40.7500   27.3526 H   0  0  0  0  0  0
   31.7718   40.3451   26.7439 H   0  0  0  0  0  0
  1  2  1  0  0  0
  2  8  1  0  0  0
  2  3  2  0  0  0
  3  4  1  0  0  0
  3 38  1  0  0  0
  4  5  1  0  0  0
  4  6  2  0  0  0
  6  7  1  0  0  0
  6  9  1  0  0  0
  7  8  2  0  0  0
  7 39  1  0  0  0
  8 40  1  0  0  0
  9 10  1  0  0  0
 10 11  2  0  0  0
 10 12  1  0  0  0
 11 26  1  0  0  0
 11 41  1  0  0  0
 12 13  2  0  0  0
 12 14  1  0  0  0
 14 15  1  0  0  0
 14 25  1  0  0  0
 15 20  1  0  0  0
 15 16  1  0  0  0
 15 42  1  0  0  0
 16 17  1  0  0  0
 16 43  1  0  0  0
 16 44  1  0  0  0
 17 18  1  0  0  0
 17 45  1  0  0  0
 17 46  1  0  0  0
 18 19  1  0  0  0
 18 21  1  0  0  0
 19 20  1  0  0  0
 19 47  1  0  0  0
 19 48  1  0  0  0
 20 49  1  0  0  0
 20 50  1  0  0  0
 21 22  2  0  0  0
 21 23  2  0  0  0
 21 24  1  0  0  0
 24 51  1  0  0  0
 24 52  1  0  0  0
 24 53  1  0  0  0
 25 26  1  0  0  0
 25 27  2  0  0  0
 26 30  2  0  0  0
 27 28  1  0  0  0
 28 29  2  0  0  0
 28 31  1  0  0  0
 29 30  1  0  0  0
 30 54  1  0  0  0
 31 32  1  0  0  0
 31 55  1  0  0  0
 32 37  1  0  0  0
 32 33  1  0  0  0
 32 56  1  0  0  0
 33 34  1  0  0  0
 33 57  1  0  0  0
 33 58  1  0  0  0
 34 35  1  0  0  0
 34 59  1  0  0  0
 34 60  1  0  0  0
 35 36  1  0  0  0
 36 37  1  0  0  0
 36 61  1  0  0  0
 36 62  1  0  0  0
 37 63  1  0  0  0
 37 64  1  0  0  0
M  END
> <s_m_entry_id>
267

> <i_f3d_flags>
0

> <r_lp_tautomer_probability>
1

> <r_epik_Ionization_Penalty>
  0.0000

> <r_epik_State_Penalty>
  0.0000

> <i_epik_Tot_Q>
0

> <s_m_job_name>
glide-dock_SP_p38_core_cons_top_1

> <r_i_docking_score>
-6.69996269538494

> <r_i_glide_gscore>
-6.69996269538494

> <r_i_glide_emodel>
-45.1317879900099

$$$$
lig_p38a_2p
                    3D
 Schrodinger Suite 2021-4.
 58 61  0  0  1  0            999 V2000
   32.7442   34.6817   14.3837 F   0  0  0  0  0  0
   33.4629   34.9079   15.5087 C   0  0  0  0  0  0
   34.8617   34.9077   15.4891 C   0  0  0  0  0  0
   35.6092   35.1493   16.6472 C   0  0  0  0  0  0
   36.9597   35.1976   16.5676 F   0  0  0  0  0  0
   34.9517   35.2363   17.8888 C   0  0  0  0  0  0
   33.5394   35.2401   17.9165 C   0  0  0  0  0  0
   32.8157   35.1493   16.7185 C   0  0  0  0  0  0
   35.7092   35.2404   19.0297 O   0  0  0  0  0  0
   35.1808   35.8283   20.1369 C   0  0  0  0  0  0
   35.2718   37.1619   20.2618 C   0  0  0  0  0  0
   34.5521   34.9943   21.1590 C   0  0  0  0  0  0
   34.3435   33.7989   20.9551 O   0  0  0  0  0  0
   34.1974   35.6134   22.3238 N   0  0  0  0  0  0
   33.6873   34.7707   23.4222 C   0  0  0  0  0  0
   32.1826   34.4660   23.2634 C   0  0  0  0  0  0
   31.6775   33.3218   24.1619 C   0  0  0  0  0  0
   31.4556   33.7870   25.9331 S   0  0  0  0  0  0
   31.0764   32.5759   26.6749 O   0  0  0  0  0  0
   32.6010   34.5913   26.3817 O   0  0  0  0  0  0
   29.9929   34.8874   25.8633 C   0  0  0  0  0  0
   34.2814   37.0375   22.5161 C   0  0  0  0  0  0
   34.8023   37.8282   21.4687 C   0  0  0  0  0  0
   33.8835   37.6391   23.6583 N   0  0  0  0  0  0
   34.0024   38.9622   23.7613 C   0  0  0  0  0  0
   34.4651   39.7897   22.8249 N   0  0  0  0  0  0
   34.8626   39.2228   21.6665 C   0  0  0  0  0  0
   33.6290   39.5493   24.9531 N   0  0  0  0  0  0
   33.1041   38.8485   26.1189 C   0  0  0  0  0  0
   33.3581   39.6566   27.4004 C   0  0  0  0  0  0
   32.7453   38.9427   28.6142 C   0  0  0  0  0  0
   31.3517   38.7491   28.4032 O   0  0  0  0  0  0
   31.0645   37.9248   27.2794 C   0  0  0  0  0  0
   31.5961   38.5789   25.9935 C   0  0  0  0  0  0
   35.3521   34.7273   14.5583 H   0  0  0  0  0  0
   32.9828   35.3078   18.8389 H   0  0  0  0  0  0
   31.7391   35.1498   16.7536 H   0  0  0  0  0  0
   35.7421   37.7613   19.4950 H   0  0  0  0  0  0
   34.2505   33.8360   23.4653 H   0  0  0  0  0  0
   33.8874   35.2387   24.3836 H   0  0  0  0  0  0
   31.5984   35.3715   23.4252 H   0  0  0  0  0  0
   31.9860   34.1722   22.2315 H   0  0  0  0  0  0
   30.7150   32.9568   23.8033 H   0  0  0  0  0  0
   32.3664   32.4765   24.1270 H   0  0  0  0  0  0
   29.7522   35.2067   26.8763 H   0  0  0  0  0  0
   30.2047   35.7623   25.2534 H   0  0  0  0  0  0
   29.1379   34.3525   25.4512 H   0  0  0  0  0  0
   35.2511   39.8826   20.9064 H   0  0  0  0  0  0
   33.7521   40.5517   25.0386 H   0  0  0  0  0  0
   33.6239   37.8935   26.2138 H   0  0  0  0  0  0
   34.4281   39.8001   27.5538 H   0  0  0  0  0  0
   32.9173   40.6511   27.3158 H   0  0  0  0  0  0
   33.2354   37.9841   28.7914 H   0  0  0  0  0  0
   32.8851   39.5440   29.5130 H   0  0  0  0  0  0
   31.5048   36.9372   27.4232 H   0  0  0  0  0  0
   29.9851   37.7886   27.2144 H   0  0  0  0  0  0
   31.0605   39.5131   25.8161 H   0  0  0  0  0  0
   31.3946   37.9336   25.1379 H   0  0  0  0  0  0
  1  2  1  0  0  0
  2  8  1  0  0  0
  2  3  2  0  0  0
  3  4  1  0  0  0
  3 35  1  0  0  0
  4  5  1  0  0  0
  4  6  2  0  0  0
  6  7  1  0  0  0
  6  9  1  0  0  0
  7  8  2  0  0  0
  7 36  1  0  0  0
  8 37  1  0  0  0
  9 10  1  0  0  0
 10 11  2  0  0  0
 10 12  1  0  0  0
 11 23  1  0  0  0
 11 38  1  0  0  0
 12 13  2  0  0  0
 12 14  1  0  0  0
 14 15  1  0  0  0
 14 22  1  0  0  0
 15 16  1  0  0  0
 15 39  1  0  0  0
 15 40  1  0  0  0
 16 17  1  0  0  0
 16 41  1  0  0  0
 16 42  1  0  0  0
 17 18  1  0  0  0
 17 43  1  0  0  0
 17 44  1  0  0  0
 18 19  2  0  0  0
 18 20  2  0  0  0
 18 21  1  0  0  0
 21 45  1  0  0  0
 21 46  1  0  0  0
 21 47  1  0  0  0
 22 23  1  0  0  0
 22 24  2  0  0  0
 23 27  2  0  0  0
 24 25  1  0  0  0
 25 26  2  0  0  0
 25 28  1  0  0  0
 26 27  1  0  0  0
 27 48  1  0  0  0
 28 29  1  0  0  0
 28 49  1  0  0  0
 29 34  1  0  0  0
 29 30  1  0  0  0
 29 50  1  0  0  0
 30 31  1  0  0  0
 30 51  1  0  0  0
 30 52  1  0  0  0
 31 32  1  0  0  0
 31 53  1  0  0  0
 31 54  1  0  0  0
 32 33  1  0  0  0
 33 34  1  0  0  0
 33 55  1  0  0  0
 33 56  1  0  0  0
 34 57  1  0  0  0
 34 58  1  0  0  0
M  END
> <s_m_entry_id>
277

> <i_f3d_flags>
0

> <r_lp_tautomer_probability>
1

> <r_epik_Ionization_Penalty>
  0.0000

> <r_epik_State_Penalty>
  0.0000

> <i_epik_Tot_Q>
0

> <s_m_job_name>
glide-dock_SP_p38_core_cons_top_1

> <r_i_docking_score>
-6.3432739119991

> <r_i_glide_gscore>
-6.3432739119991

> <r_i_glide_emodel>
-54.0743768501353

$$$$
lig_p38a_2g
                    3D
 Schrodinger Suite 2021-4.
 46 49  0  0  1  0            999 V2000
   32.7839   35.3925   18.9350 F   0  0  0  0  0  0
   33.5706   35.2516   17.8421 C   0  0  0  0  0  0
   32.9522   35.1493   16.5882 C   0  0  0  0  0  0
   33.7128   34.8994   15.4403 C   0  0  0  0  0  0
   35.1148   34.9027   15.5269 C   0  0  0  0  0  0
   35.7498   35.1491   16.7465 C   0  0  0  0  0  0
   34.9874   35.2369   17.9193 C   0  0  0  0  0  0
   35.6989   35.2018   19.0832 O   0  0  0  0  0  0
   35.1754   35.8164   20.1638 C   0  0  0  0  0  0
   35.2658   37.1554   20.2697 C   0  0  0  0  0  0
   34.5520   34.9906   21.1999 C   0  0  0  0  0  0
   34.3711   33.7877   21.0197 O   0  0  0  0  0  0
   34.1772   35.6226   22.3478 N   0  0  0  0  0  0
   33.6117   34.8414   23.4625 C   0  0  0  0  0  0
   34.2757   37.0410   22.5244 C   0  0  0  0  0  0
   34.7939   37.8266   21.4720 C   0  0  0  0  0  0
   33.8845   37.6382   23.6693 N   0  0  0  0  0  0
   33.9985   38.9614   23.7608 C   0  0  0  0  0  0
   34.4663   39.7894   22.8267 N   0  0  0  0  0  0
   34.8579   39.2188   21.6686 C   0  0  0  0  0  0
   33.6012   39.5493   24.9390 N   0  0  0  0  0  0
   33.0592   38.8804   26.1137 C   0  0  0  0  0  0
   33.0917   39.8310   27.3213 C   0  0  0  0  0  0
   32.4605   39.1616   28.5528 C   0  0  0  0  0  0
   31.1294   38.7485   28.2542 O   0  0  0  0  0  0
   31.0646   37.7888   27.2057 C   0  0  0  0  0  0
   31.6113   38.3994   25.9031 C   0  0  0  0  0  0
   31.8761   35.1495   16.5308 H   0  0  0  0  0  0
   33.2207   34.7495   14.4944 H   0  0  0  0  0  0
   35.7345   34.6895   14.6891 H   0  0  0  0  0  0
   36.8286   35.1504   16.7949 H   0  0  0  0  0  0
   35.7341   37.7471   19.4966 H   0  0  0  0  0  0
   32.5633   35.0969   23.6025 H   0  0  0  0  0  0
   33.6778   33.7577   23.3427 H   0  0  0  0  0  0
   34.1413   35.0731   24.3887 H   0  0  0  0  0  0
   35.2474   39.8718   20.9039 H   0  0  0  0  0  0
   33.7522   40.5476   25.0229 H   0  0  0  0  0  0
   33.6836   38.0115   26.3300 H   0  0  0  0  0  0
   34.1204   40.1236   27.5430 H   0  0  0  0  0  0
   32.5524   40.7479   27.0895 H   0  0  0  0  0  0
   33.0526   38.3046   28.8815 H   0  0  0  0  0  0
   32.4216   39.8670   29.3830 H   0  0  0  0  0  0
   31.6262   36.8948   27.4787 H   0  0  0  0  0  0
   30.0264   37.4899   27.0779 H   0  0  0  0  0  0
   30.9804   39.2278   25.5876 H   0  0  0  0  0  0
   31.5694   37.6511   25.1135 H   0  0  0  0  0  0
  1  2  1  0  0  0
  2  7  1  0  0  0
  2  3  2  0  0  0
  3  4  1  0  0  0
  3 28  1  0  0  0
  4  5  2  0  0  0
  4 29  1  0  0  0
  5  6  1  0  0  0
  5 30  1  0  0  0
  6  7  2  0  0  0
  6 31  1  0  0  0
  7  8  1  0  0  0
  8  9  1  0  0  0
  9 10  2  0  0  0
  9 11  1  0  0  0
 10 16  1  0  0  0
 10 32  1  0  0  0
 11 12  2  0  0  0
 11 13  1  0  0  0
 13 14  1  0  0  0
 13 15  1  0  0  0
 14 33  1  0  0  0
 14 34  1  0  0  0
 14 35  1  0  0  0
 15 16  1  0  0  0
 15 17  2  0  0  0
 16 20  2  0  0  0
 17 18  1  0  0  0
 18 19  2  0  0  0
 18 21  1  0  0  0
 19 20  1  0  0  0
 20 36  1  0  0  0
 21 22  1  0  0  0
 21 37  1  0  0  0
 22 27  1  0  0  0
 22 23  1  0  0  0
 22 38  1  0  0  0
 23 24  1  0  0  0
 23 39  1  0  0  0
 23 40  1  0  0  0
 24 25  1  0  0  0
 24 41  1  0  0  0
 24 42  1  0  0  0
 25 26  1  0  0  0
 26 27  1  0  0  0
 26 43  1  0  0  0
 26 44  1  0  0  0
 27 45  1  0  0  0
 27 46  1  0  0  0
M  END
> <s_m_entry_id>
282

> <i_f3d_flags>
0

> <r_lp_tautomer_probability>
1

> <r_epik_Ionization_Penalty>
  0.0000

> <r_epik_State_Penalty>
  0.0000

> <i_epik_Tot_Q>
0

> <s_m_job_name>
glide-dock_SP_p38_core_cons_top_1

> <r_i_docking_score>
-6.20175720645377

> <r_i_glide_gscore>
-6.20175720645377

> <r_i_glide_emodel>
-43.0472333627614

$$$$
lig_p38a_2o
                    3D
 Schrodinger Suite 2021-4.
 55 58  0  0  1  0            999 V2000
   32.7351   34.6700   14.3908 F   0  0  0  0  0  0
   33.4590   34.9020   15.5105 C   0  0  0  0  0  0
   34.8577   34.9120   15.4889 C   0  0  0  0  0  0
   35.6107   35.1533   16.6484 C   0  0  0  0  0  0
   36.9608   35.1981   16.5675 F   0  0  0  0  0  0
   34.9532   35.2463   17.8894 C   0  0  0  0  0  0
   33.5415   35.2485   17.9180 C   0  0  0  0  0  0
   32.8127   35.1493   16.7256 C   0  0  0  0  0  0
   35.7158   35.2532   19.0283 O   0  0  0  0  0  0
   35.1851   35.8270   20.1361 C   0  0  0  0  0  0
   35.2596   37.1639   20.2640 C   0  0  0  0  0  0
   34.5955   34.9883   21.1781 C   0  0  0  0  0  0
   34.5519   33.7745   21.0245 O   0  0  0  0  0  0
   34.1734   35.6134   22.3203 N   0  0  0  0  0  0
   33.6205   34.7978   23.4208 C   0  0  0  0  0  0
   32.0818   34.6912   23.3793 C   0  0  0  0  0  0
   31.4995   33.6249   21.9906 S   0  0  0  0  0  0
   31.7518   34.3484   20.7368 O   0  0  0  0  0  0
   32.0420   32.2775   22.1807 O   0  0  0  0  0  0
   29.7084   33.5492   22.2568 C   0  0  0  0  0  0
   34.2726   37.0376   22.5144 C   0  0  0  0  0  0
   34.7909   37.8260   21.4710 C   0  0  0  0  0  0
   33.8887   37.6364   23.6631 N   0  0  0  0  0  0
   34.0052   38.9633   23.7621 C   0  0  0  0  0  0
   34.4647   39.7896   22.8276 N   0  0  0  0  0  0
   34.8511   39.2233   21.6678 C   0  0  0  0  0  0
   33.5824   39.5494   24.9370 N   0  0  0  0  0  0
   33.0040   38.8480   26.0782 C   0  0  0  0  0  0
   32.9367   39.7676   27.3091 C   0  0  0  0  0  0
   32.2882   39.0364   28.4975 C   0  0  0  0  0  0
   30.9992   38.5537   28.1332 O   0  0  0  0  0  0
   31.0320   37.6250   27.0531 C   0  0  0  0  0  0
   31.5911   38.3083   25.7943 C   0  0  0  0  0  0
   35.3518   34.7354   14.5591 H   0  0  0  0  0  0
   32.9927   35.3195   18.8455 H   0  0  0  0  0  0
   31.7360   35.1493   16.7655 H   0  0  0  0  0  0
   35.7199   37.7730   19.4984 H   0  0  0  0  0  0
   34.0567   33.7984   23.4363 H   0  0  0  0  0  0
   33.9251   35.2154   24.3783 H   0  0  0  0  0  0
   31.7263   34.2368   24.3030 H   0  0  0  0  0  0
   31.6088   35.6670   23.2921 H   0  0  0  0  0  0
   29.2544   33.0147   21.4215 H   0  0  0  0  0  0
   29.4875   33.0415   23.1909 H   0  0  0  0  0  0
   29.3519   34.5673   22.2896 H   0  0  0  0  0  0
   35.2573   39.8756   20.9102 H   0  0  0  0  0  0
   33.7366   40.5474   25.0329 H   0  0  0  0  0  0
   33.6567   38.0077   26.3157 H   0  0  0  0  0  0
   33.9349   40.1036   27.5915 H   0  0  0  0  0  0
   32.3629   40.6632   27.0745 H   0  0  0  0  0  0
   32.9162   38.2073   28.8261 H   0  0  0  0  0  0
   32.1806   39.7155   29.3435 H   0  0  0  0  0  0
   31.6302   36.7519   27.3172 H   0  0  0  0  0  0
   30.0209   37.2617   26.8770 H   0  0  0  0  0  0
   30.9298   39.1222   25.4888 H   0  0  0  0  0  0
   31.5988   37.5890   24.9761 H   0  0  0  0  0  0
  1  2  1  0  0  0
  2  8  1  0  0  0
  2  3  2  0  0  0
  3  4  1  0  0  0
  3 34  1  0  0  0
  4  5  1  0  0  0
  4  6  2  0  0  0
  6  7  1  0  0  0
  6  9  1  0  0  0
  7  8  2  0  0  0
  7 35  1  0  0  0
  8 36  1  0  0  0
  9 10  1  0  0  0
 10 11  2  0  0  0
 10 12  1  0  0  0
 11 22  1  0  0  0
 11 37  1  0  0  0
 12 13  2  0  0  0
 12 14  1  0  0  0
 14 15  1  0  0  0
 14 21  1  0  0  0
 15 16  1  0  0  0
 15 38  1  0  0  0
 15 39  1  0  0  0
 16 17  1  0  0  0
 16 40  1  0  0  0
 16 41  1  0  0  0
 17 18  2  0  0  0
 17 19  2  0  0  0
 17 20  1  0  0  0
 20 42  1  0  0  0
 20 43  1  0  0  0
 20 44  1  0  0  0
 21 22  1  0  0  0
 21 23  2  0  0  0
 22 26  2  0  0  0
 23 24  1  0  0  0
 24 25  2  0  0  0
 24 27  1  0  0  0
 25 26  1  0  0  0
 26 45  1  0  0  0
 27 28  1  0  0  0
 27 46  1  0  0  0
 28 33  1  0  0  0
 28 29  1  0  0  0
 28 47  1  0  0  0
 29 30  1  0  0  0
 29 48  1  0  0  0
 29 49  1  0  0  0
 30 31  1  0  0  0
 30 50  1  0  0  0
 30 51  1  0  0  0
 31 32  1  0  0  0
 32 33  1  0  0  0
 32 52  1  0  0  0
 32 53  1  0  0  0
 33 54  1  0  0  0
 33 55  1  0  0  0
M  END
> <s_m_entry_id>
259

> <i_f3d_flags>
0

> <r_lp_tautomer_probability>
1

> <r_epik_Ionization_Penalty>
  0.0000

> <r_epik_State_Penalty>
  0.0000

> <i_epik_Tot_Q>
0

> <s_m_job_name>
glide-dock_SP_p38_core_cons_top_1

> <r_i_docking_score>
-6.87213159722328

> <r_i_glide_gscore>
-6.87213159722328

> <r_i_glide_emodel>
-42.2166422766732

$$$$
lig_p38a_2f
                    3D
 Schrodinger Suite 2021-4.
 46 49  0  0  1  0            999 V2000
   36.1980   35.9492   16.7572 C   0  0  0  0  0  0
   37.2654   36.3585   15.9456 C   0  0  0  0  0  0
   37.0378   36.7496   14.6891 F   0  0  0  0  0  0
   38.5519   36.5145   16.4685 C   0  0  0  0  0  0
   38.7652   36.3390   17.8413 C   0  0  0  0  0  0
   37.7013   35.9600   18.6777 C   0  0  0  0  0  0
   36.4115   35.7623   18.1322 C   0  0  0  0  0  0
   35.3968   35.2510   18.8955 O   0  0  0  0  0  0
   35.1447   35.8191   20.1118 C   0  0  0  0  0  0
   35.2356   37.1591   20.2658 C   0  0  0  0  0  0
   34.5505   34.9792   21.1476 C   0  0  0  0  0  0
   34.3190   33.7884   20.9422 O   0  0  0  0  0  0
   34.2482   35.5891   22.3310 N   0  0  0  0  0  0
   33.7356   34.7614   23.4346 C   0  0  0  0  0  0
   34.3304   37.0133   22.5397 C   0  0  0  0  0  0
   34.8175   37.8120   21.4867 C   0  0  0  0  0  0
   33.9449   37.6144   23.6894 N   0  0  0  0  0  0
   34.0270   38.9453   23.7709 C   0  0  0  0  0  0
   34.4626   39.7752   22.8244 N   0  0  0  0  0  0
   34.8571   39.2057   21.6692 C   0  0  0  0  0  0
   33.6183   39.5494   24.9418 N   0  0  0  0  0  0
   33.0676   38.8797   26.1134 C   0  0  0  0  0  0
   33.1032   39.8187   27.3293 C   0  0  0  0  0  0
   32.4740   39.1408   28.5552 C   0  0  0  0  0  0
   31.1410   38.7450   28.2548 O   0  0  0  0  0  0
   31.0605   37.7989   27.1948 C   0  0  0  0  0  0
   31.6156   38.4151   25.8989 C   0  0  0  0  0  0
   35.2159   35.8088   16.3319 H   0  0  0  0  0  0
   39.3517   36.8434   15.8278 H   0  0  0  0  0  0
   39.7610   36.4249   18.2452 H   0  0  0  0  0  0
   37.8880   35.7826   19.7270 H   0  0  0  0  0  0
   35.5841   37.8003   19.4690 H   0  0  0  0  0  0
   34.0025   35.1701   24.4090 H   0  0  0  0  0  0
   32.6484   34.7019   23.3822 H   0  0  0  0  0  0
   34.1311   33.7438   23.4228 H   0  0  0  0  0  0
   35.2133   39.8660   20.8933 H   0  0  0  0  0  0
   33.7519   40.5512   25.0131 H   0  0  0  0  0  0
   33.6894   38.0094   26.3298 H   0  0  0  0  0  0
   34.1285   40.1158   27.5525 H   0  0  0  0  0  0
   32.5520   40.7354   27.1106 H   0  0  0  0  0  0
   33.0610   38.2760   28.8675 H   0  0  0  0  0  0
   32.4525   39.8344   29.3960 H   0  0  0  0  0  0
   31.6077   36.8930   27.4600 H   0  0  0  0  0  0
   30.0181   37.5106   27.0660 H   0  0  0  0  0  0
   30.9905   39.2591   25.6035 H   0  0  0  0  0  0
   31.5574   37.6847   25.0915 H   0  0  0  0  0  0
  1  7  1  0  0  0
  1  2  2  0  0  0
  1 28  1  0  0  0
  2  3  1  0  0  0
  2  4  1  0  0  0
  4  5  2  0  0  0
  4 29  1  0  0  0
  5  6  1  0  0  0
  5 30  1  0  0  0
  6  7  2  0  0  0
  6 31  1  0  0  0
  7  8  1  0  0  0
  8  9  1  0  0  0
  9 10  2  0  0  0
  9 11  1  0  0  0
 10 16  1  0  0  0
 10 32  1  0  0  0
 11 12  2  0  0  0
 11 13  1  0  0  0
 13 14  1  0  0  0
 13 15  1  0  0  0
 14 33  1  0  0  0
 14 34  1  0  0  0
 14 35  1  0  0  0
 15 16  1  0  0  0
 15 17  2  0  0  0
 16 20  2  0  0  0
 17 18  1  0  0  0
 18 19  2  0  0  0
 18 21  1  0  0  0
 19 20  1  0  0  0
 20 36  1  0  0  0
 21 22  1  0  0  0
 21 37  1  0  0  0
 22 27  1  0  0  0
 22 23  1  0  0  0
 22 38  1  0  0  0
 23 24  1  0  0  0
 23 39  1  0  0  0
 23 40  1  0  0  0
 24 25  1  0  0  0
 24 41  1  0  0  0
 24 42  1  0  0  0
 25 26  1  0  0  0
 26 27  1  0  0  0
 26 43  1  0  0  0
 26 44  1  0  0  0
 27 45  1  0  0  0
 27 46  1  0  0  0
M  END
> <s_m_entry_id>
256

> <i_f3d_flags>
0

> <r_lp_tautomer_probability>
1

> <r_epik_Ionization_Penalty>
  0.0000

> <r_epik_State_Penalty>
  0.0000

> <i_epik_Tot_Q>
0

> <s_m_job_name>
glide-dock_SP_p38_core_cons_top_1

> <r_i_docking_score>
-7.11367331365001

> <r_i_glide_gscore>
-7.11367331365001

> <r_i_glide_emodel>
-34.7674897611708

$$$$
lig_p38a_2c
                    3D
 Schrodinger Suite 2021-4.
 45 48  0  0  1  0            999 V2000
   33.6869   35.1491   17.6579 Cl  0  0  0  0  0  0
   35.3672   35.5209   17.5884 C   0  0  0  0  0  0
   36.0486   35.3481   16.3638 C   0  0  0  0  0  0
   37.4400   35.5556   16.2891 C   0  0  0  0  0  0
   38.1533   35.9493   17.4380 C   0  0  0  0  0  0
   37.4682   36.1716   18.6529 C   0  0  0  0  0  0
   36.0718   35.9599   18.7337 C   0  0  0  0  0  0
   35.3714   36.3105   19.9853 C   0  0  0  0  0  0
   35.3326   37.6193   20.2894 C   0  0  0  0  0  0
   34.8078   35.3192   20.9181 C   0  0  0  0  0  0
   34.8243   34.1145   20.6508 O   0  0  0  0  0  0
   34.2761   35.7972   22.0912 N   0  0  0  0  0  0
   33.7163   34.8453   23.0637 C   0  0  0  0  0  0
   34.2062   37.1968   22.4291 C   0  0  0  0  0  0
   34.7415   38.1179   21.5128 C   0  0  0  0  0  0
   33.6587   37.6636   23.5796 N   0  0  0  0  0  0
   33.6594   38.9848   23.7980 C   0  0  0  0  0  0
   34.1524   39.9186   22.9896 N   0  0  0  0  0  0
   34.6806   39.4848   21.8331 C   0  0  0  0  0  0
   33.1029   39.4757   24.9609 N   0  0  0  0  0  0
   32.6052   38.6699   26.0688 C   0  0  0  0  0  0
   32.4560   39.5313   27.3306 C   0  0  0  0  0  0
   31.8827   38.7027   28.4906 C   0  0  0  0  0  0
   30.6332   38.1378   28.1067 O   0  0  0  0  0  0
   30.7399   37.2486   27.0000 C   0  0  0  0  0  0
   31.2450   38.0139   25.7655 C   0  0  0  0  0  0
   35.5040   35.0355   15.4852 H   0  0  0  0  0  0
   37.9601   35.4100   15.3531 H   0  0  0  0  0  0
   39.2196   36.1181   17.3824 H   0  0  0  0  0  0
   38.0191   36.5225   19.5143 H   0  0  0  0  0  0
   35.7573   38.3497   19.6163 H   0  0  0  0  0  0
   33.9769   35.1272   24.0846 H   0  0  0  0  0  0
   32.6284   34.8344   22.9871 H   0  0  0  0  0  0
   34.0684   33.8210   22.9401 H   0  0  0  0  0  0
   35.0646   40.2336   21.1640 H   0  0  0  0  0  0
   33.2316   40.4655   25.1303 H   0  0  0  0  0  0
   33.3373   37.8862   26.2687 H   0  0  0  0  0  0
   33.4154   39.9646   27.6180 H   0  0  0  0  0  0
   31.7849   40.3658   27.1263 H   0  0  0  0  0  0
   32.5761   37.9134   28.7871 H   0  0  0  0  0  0
   31.7316   39.3368   29.3641 H   0  0  0  0  0  0
   31.4130   36.4257   27.2473 H   0  0  0  0  0  0
   29.7643   36.8042   26.8018 H   0  0  0  0  0  0
   30.5110   38.7732   25.4883 H   0  0  0  0  0  0
   31.3208   37.3306   24.9180 H   0  0  0  0  0  0
  1  2  1  0  0  0
  2  7  1  0  0  0
  2  3  2  0  0  0
  3  4  1  0  0  0
  3 27  1  0  0  0
  4  5  2  0  0  0
  4 28  1  0  0  0
  5  6  1  0  0  0
  5 29  1  0  0  0
  6  7  2  0  0  0
  6 30  1  0  0  0
  7  8  1  0  0  0
  8  9  2  0  0  0
  8 10  1  0  0  0
  9 15  1  0  0  0
  9 31  1  0  0  0
 10 11  2  0  0  0
 10 12  1  0  0  0
 12 13  1  0  0  0
 12 14  1  0  0  0
 13 32  1  0  0  0
 13 33  1  0  0  0
 13 34  1  0  0  0
 14 15  1  0  0  0
 14 16  2  0  0  0
 15 19  2  0  0  0
 16 17  1  0  0  0
 17 18  2  0  0  0
 17 20  1  0  0  0
 18 19  1  0  0  0
 19 35  1  0  0  0
 20 21  1  0  0  0
 20 36  1  0  0  0
 21 26  1  0  0  0
 21 22  1  0  0  0
 21 37  1  0  0  0
 22 23  1  0  0  0
 22 38  1  0  0  0
 22 39  1  0  0  0
 23 24  1  0  0  0
 23 40  1  0  0  0
 23 41  1  0  0  0
 24 25  1  0  0  0
 25 26  1  0  0  0
 25 42  1  0  0  0
 25 43  1  0  0  0
 26 44  1  0  0  0
 26 45  1  0  0  0
M  END
> <s_m_entry_id>
253

> <i_f3d_flags>
0

> <r_lp_tautomer_probability>
1

> <r_epik_Ionization_Penalty>
  0.0000

> <r_epik_State_Penalty>
  0.0000

> <i_epik_Tot_Q>
0

> <s_m_job_name>
glide-dock_SP_p38_core_cons_top_1

> <r_i_docking_score>
-7.70716521282508

> <r_i_glide_gscore>
-7.70716521282508

> <r_i_glide_emodel>
-64.6013260677414

$$$$
lig_p38a_2m
                    3D
 Schrodinger Suite 2021-4.
 50 54  0  0  1  0            999 V2000
   32.7419   34.6973   14.3853 F   0  0  0  0  0  0
   33.4626   34.9153   15.5106 C   0  0  0  0  0  0
   34.8619   34.9159   15.4889 C   0  0  0  0  0  0
   35.6097   35.1494   16.6493 C   0  0  0  0  0  0
   36.9603   35.1992   16.5696 F   0  0  0  0  0  0
   34.9533   35.2312   17.8926 C   0  0  0  0  0  0
   33.5414   35.2336   17.9211 C   0  0  0  0  0  0
   32.8171   35.1492   16.7228 C   0  0  0  0  0  0
   35.7089   35.2332   19.0358 O   0  0  0  0  0  0
   35.1824   35.8265   20.1423 C   0  0  0  0  0  0
   35.2708   37.1625   20.2618 C   0  0  0  0  0  0
   34.5668   34.9970   21.1774 C   0  0  0  0  0  0
   34.4223   33.7898   21.0016 O   0  0  0  0  0  0
   34.1638   35.6246   22.3220 N   0  0  0  0  0  0
   33.6213   34.8340   23.4062 C   0  0  0  0  0  0
   32.2724   35.1786   24.0164 C   0  0  0  0  0  0
   32.4175   33.9327   23.1842 C   0  0  0  0  0  0
   34.3023   37.0433   22.5238 C   0  0  0  0  0  0
   34.8117   37.8316   21.4687 C   0  0  0  0  0  0
   33.9557   37.6420   23.6840 N   0  0  0  0  0  0
   34.0575   38.9663   23.7776 C   0  0  0  0  0  0
   34.4948   39.7941   22.8269 N   0  0  0  0  0  0
   34.8757   39.2264   21.6596 C   0  0  0  0  0  0
   33.6767   39.5493   24.9707 N   0  0  0  0  0  0
   33.0921   38.8404   26.1047 C   0  0  0  0  0  0
   33.3363   39.6023   27.4148 C   0  0  0  0  0  0
   32.6634   38.8813   28.5914 C   0  0  0  0  0  0
   31.2715   38.7400   28.3335 O   0  0  0  0  0  0
   30.9911   37.9505   27.1826 C   0  0  0  0  0  0
   31.5792   38.6230   25.9301 C   0  0  0  0  0  0
   35.3524   34.7425   14.5574 H   0  0  0  0  0  0
   32.9859   35.2963   18.8450 H   0  0  0  0  0  0
   31.7405   35.1493   16.7597 H   0  0  0  0  0  0
   35.7353   37.7603   19.4908 H   0  0  0  0  0  0
   34.3645   34.4546   24.1052 H   0  0  0  0  0  0
   32.1634   35.0578   25.0927 H   0  0  0  0  0  0
   31.6947   35.9915   23.5808 H   0  0  0  0  0  0
   31.9385   33.9340   22.2065 H   0  0  0  0  0  0
   32.4119   32.9751   23.7014 H   0  0  0  0  0  0
   35.2543   39.8842   20.8926 H   0  0  0  0  0  0
   33.7565   40.5567   25.0481 H   0  0  0  0  0  0
   33.5767   37.8670   26.1935 H   0  0  0  0  0  0
   34.4061   39.7035   27.6020 H   0  0  0  0  0  0
   32.9333   40.6142   27.3422 H   0  0  0  0  0  0
   33.1161   37.9029   28.7612 H   0  0  0  0  0  0
   32.7941   39.4578   29.5075 H   0  0  0  0  0  0
   31.3939   36.9448   27.3104 H   0  0  0  0  0  0
   29.9105   37.8489   27.0889 H   0  0  0  0  0  0
   31.0791   39.5787   25.7659 H   0  0  0  0  0  0
   31.3781   38.0102   25.0512 H   0  0  0  0  0  0
  1  2  1  0  0  0
  2  8  1  0  0  0
  2  3  2  0  0  0
  3  4  1  0  0  0
  3 31  1  0  0  0
  4  5  1  0  0  0
  4  6  2  0  0  0
  6  7  1  0  0  0
  6  9  1  0  0  0
  7  8  2  0  0  0
  7 32  1  0  0  0
  8 33  1  0  0  0
  9 10  1  0  0  0
 10 11  2  0  0  0
 10 12  1  0  0  0
 11 19  1  0  0  0
 11 34  1  0  0  0
 12 13  2  0  0  0
 12 14  1  0  0  0
 14 15  1  0  0  0
 14 18  1  0  0  0
 15 17  1  0  0  0
 15 16  1  0  0  0
 15 35  1  0  0  0
 16 17  1  0  0  0
 16 36  1  0  0  0
 16 37  1  0  0  0
 17 38  1  0  0  0
 17 39  1  0  0  0
 18 19  1  0  0  0
 18 20  2  0  0  0
 19 23  2  0  0  0
 20 21  1  0  0  0
 21 22  2  0  0  0
 21 24  1  0  0  0
 22 23  1  0  0  0
 23 40  1  0  0  0
 24 25  1  0  0  0
 24 41  1  0  0  0
 25 30  1  0  0  0
 25 26  1  0  0  0
 25 42  1  0  0  0
 26 27  1  0  0  0
 26 43  1  0  0  0
 26 44  1  0  0  0
 27 28  1  0  0  0
 27 45  1  0  0  0
 27 46  1  0  0  0
 28 29  1  0  0  0
 29 30  1  0  0  0
 29 47  1  0  0  0
 29 48  1  0  0  0
 30 49  1  0  0  0
 30 50  1  0  0  0
M  END
> <s_m_entry_id>
270

> <i_f3d_flags>
0

> <r_lp_tautomer_probability>
1

> <r_epik_Ionization_Penalty>
  0.0000

> <r_epik_State_Penalty>
  0.0000

> <i_epik_Tot_Q>
0

> <s_m_job_name>
glide-dock_SP_p38_core_cons_top_1

> <r_i_docking_score>
-6.63611321544688

> <r_i_glide_gscore>
-6.63611321544688

> <r_i_glide_emodel>
-50.4904096004079

$$$$
lig_p38a_2ee
                    3D
 Schrodinger Suite 2021-4.
 52 55  0  0  1  0            999 V2000
   32.7458   34.7362   14.3766 F   0  0  0  0  0  0
   33.4632   34.9297   15.5077 C   0  0  0  0  0  0
   34.8620   34.9231   15.4886 C   0  0  0  0  0  0
   35.6082   35.1496   16.6510 C   0  0  0  0  0  0
   36.9587   35.2048   16.5718 F   0  0  0  0  0  0
   34.9522   35.2285   17.8938 C   0  0  0  0  0  0
   33.5399   35.2245   17.9222 C   0  0  0  0  0  0
   32.8170   35.1493   16.7215 C   0  0  0  0  0  0
   35.7076   35.2350   19.0376 O   0  0  0  0  0  0
   35.1791   35.8255   20.1450 C   0  0  0  0  0  0
   35.2644   37.1605   20.2666 C   0  0  0  0  0  0
   34.5522   34.9944   21.1739 C   0  0  0  0  0  0
   34.3337   33.8011   20.9728 O   0  0  0  0  0  0
   34.2042   35.6184   22.3387 N   0  0  0  0  0  0
   33.6563   34.8192   23.4454 C   0  0  0  0  0  0
   34.2812   37.0392   22.5231 C   0  0  0  0  0  0
   34.7970   37.8262   21.4729 C   0  0  0  0  0  0
   33.8838   37.6378   23.6673 N   0  0  0  0  0  0
   34.0041   38.9613   23.7675 C   0  0  0  0  0  0
   34.4617   39.7884   22.8262 N   0  0  0  0  0  0
   34.8540   39.2179   21.6692 C   0  0  0  0  0  0
   33.6321   39.5497   24.9573 N   0  0  0  0  0  0
   33.2570   38.8468   26.1755 C   0  0  0  0  0  0
   34.4702   38.1660   26.8476 C   0  0  0  0  0  0
   34.0744   37.5335   28.1885 C   0  0  0  0  0  0
   33.4987   38.5740   29.0483 N   0  0  0  0  0  0
   32.2529   39.1185   28.4922 C   0  0  0  0  0  0
   32.5640   39.8145   27.1591 C   0  0  0  0  0  0
   34.1279   39.0289   30.1615 C   0  0  0  0  0  0
   35.2094   38.5793   30.5438 O   0  0  0  0  0  0
   33.4731   40.1377   30.9911 C   0  0  0  0  0  0
   35.3521   34.7502   14.5562 H   0  0  0  0  0  0
   32.9896   35.2744   18.8498 H   0  0  0  0  0  0
   31.7417   35.1506   16.7540 H   0  0  0  0  0  0
   35.7379   37.7586   19.5018 H   0  0  0  0  0  0
   33.8415   33.7493   23.3512 H   0  0  0  0  0  0
   34.0978   35.1133   24.3997 H   0  0  0  0  0  0
   32.5774   34.9691   23.5128 H   0  0  0  0  0  0
   35.2431   39.8713   20.9051 H   0  0  0  0  0  0
   33.7528   40.5528   25.0361 H   0  0  0  0  0  0
   32.5373   38.0714   25.9071 H   0  0  0  0  0  0
   35.2608   38.8984   27.0145 H   0  0  0  0  0  0
   34.8849   37.3896   26.2059 H   0  0  0  0  0  0
   34.9403   37.0374   28.6308 H   0  0  0  0  0  0
   33.3354   36.7479   28.0270 H   0  0  0  0  0  0
   31.5430   38.3042   28.3383 H   0  0  0  0  0  0
   31.7537   39.8212   29.1559 H   0  0  0  0  0  0
   31.6482   40.2043   26.7171 H   0  0  0  0  0  0
   33.1999   40.6788   27.3620 H   0  0  0  0  0  0
   33.3793   41.0597   30.4126 H   0  0  0  0  0  0
   34.0850   40.3627   31.8681 H   0  0  0  0  0  0
   32.4839   39.8307   31.3383 H   0  0  0  0  0  0
  1  2  1  0  0  0
  2  8  1  0  0  0
  2  3  2  0  0  0
  3  4  1  0  0  0
  3 32  1  0  0  0
  4  5  1  0  0  0
  4  6  2  0  0  0
  6  7  1  0  0  0
  6  9  1  0  0  0
  7  8  2  0  0  0
  7 33  1  0  0  0
  8 34  1  0  0  0
  9 10  1  0  0  0
 10 11  2  0  0  0
 10 12  1  0  0  0
 11 17  1  0  0  0
 11 35  1  0  0  0
 12 13  2  0  0  0
 12 14  1  0  0  0
 14 15  1  0  0  0
 14 16  1  0  0  0
 15 36  1  0  0  0
 15 37  1  0  0  0
 15 38  1  0  0  0
 16 17  1  0  0  0
 16 18  2  0  0  0
 17 21  2  0  0  0
 18 19  1  0  0  0
 19 20  2  0  0  0
 19 22  1  0  0  0
 20 21  1  0  0  0
 21 39  1  0  0  0
 22 23  1  0  0  0
 22 40  1  0  0  0
 23 28  1  0  0  0
 23 24  1  0  0  0
 23 41  1  0  0  0
 24 25  1  0  0  0
 24 42  1  0  0  0
 24 43  1  0  0  0
 25 26  1  0  0  0
 25 44  1  0  0  0
 25 45  1  0  0  0
 26 27  1  0  0  0
 26 29  1  0  0  0
 27 28  1  0  0  0
 27 46  1  0  0  0
 27 47  1  0  0  0
 28 48  1  0  0  0
 28 49  1  0  0  0
 29 30  2  0  0  0
 29 31  1  0  0  0
 31 50  1  0  0  0
 31 51  1  0  0  0
 31 52  1  0  0  0
M  END
> <s_m_entry_id>
278

> <i_f3d_flags>
0

> <r_lp_tautomer_probability>
1

> <r_epik_Ionization_Penalty>
  0.0000

> <r_epik_State_Penalty>
  0.0000

> <i_epik_Tot_Q>
0

> <s_m_job_name>
glide-dock_SP_p38_core_cons_top_1

> <r_i_docking_score>
-6.30314237483146

> <r_i_glide_gscore>
-6.30314237483146

> <r_i_glide_emodel>
-46.5324019388273

$$$$
