lig_p38a_3flw
                    3D
 Schrodinger Suite 2021-4.
 49 51  0  0  1  0            999 V2000
   33.8345   34.8550   23.6688 C   0  0  0  0  0  0
   35.1084   35.9315   20.2775 C   0  0  0  0  0  0
   35.2703   37.2618   20.4493 C   0  0  0  0  0  0
   34.8921   37.8936   21.7087 C   0  0  0  0  0  0
   34.9356   39.2810   21.9372 C   0  0  0  0  0  0
   34.4919   39.8287   23.0893 N   0  0  0  0  0  0
   34.5514   35.0864   21.3350 C   0  0  0  0  0  0
   34.3230   33.8959   21.1293 O   0  0  0  0  0  0
   34.3023   35.6749   22.5385 N   0  0  0  0  0  0
   34.3987   37.0849   22.7517 C   0  0  0  0  0  0
   33.9891   37.6548   23.9017 N   0  0  0  0  0  0
   34.0211   38.9795   24.0023 C   0  0  0  0  0  0
   33.4563   39.5495   25.1232 N   0  0  0  0  0  0
   33.9180   33.7768   23.5152 H   0  0  0  0  0  0
   34.4134   35.0838   24.5660 H   0  0  0  0  0  0
   32.7867   35.0740   23.8828 H   0  0  0  0  0  0
   35.6460   37.8974   19.6605 H   0  0  0  0  0  0
   35.3028   39.9500   21.1767 H   0  0  0  0  0  0
   33.5636   40.5520   25.2171 H   0  0  0  0  0  0
   32.8572   38.8344   26.2492 C   0  0  0  0  0  0
   32.6707   39.8089   27.4355 C   0  0  0  0  0  0
   31.5215   38.1533   25.8445 C   0  0  0  0  0  0
   33.5597   38.0555   26.5493 H   0  0  0  0  0  0
   31.9491   39.3856   28.1340 H   0  0  0  0  0  0
   33.9482   40.1047   28.2495 C   0  0  0  0  0  0
   32.2171   40.7384   27.0888 H   0  0  0  0  0  0
   30.7523   38.9027   25.6524 H   0  0  0  0  0  0
   31.6531   37.6325   24.8971 H   0  0  0  0  0  0
   31.0068   37.1193   26.8662 C   0  0  0  0  0  0
   31.8348   36.5681   27.3113 H   0  0  0  0  0  0
   30.4676   37.6098   27.6768 H   0  0  0  0  0  0
   30.1524   36.1913   26.2247 O   0  0  0  0  0  0
   34.9523   40.7480   27.4892 O   0  0  0  0  0  0
   34.3571   39.1839   28.6658 H   0  0  0  0  0  0
   33.6970   40.7480   29.0937 H   0  0  0  0  0  0
   34.5517   41.4455   26.9742 H   0  0  0  0  0  0
   29.4349   35.9502   26.8047 H   0  0  0  0  0  0
   35.3576   35.2841   19.0943 O   0  0  0  0  0  0
   37.9027   36.5980   16.0501 C   0  0  0  0  0  0
   38.4465   36.3494   17.3297 C   0  0  0  0  0  0
   37.5903   36.0294   18.4047 C   0  0  0  0  0  0
   36.2223   35.7765   18.1535 C   0  0  0  0  0  0
   35.7517   35.8423   16.8367 C   0  0  0  0  0  0
   36.5515   36.3360   15.8014 C   0  0  0  0  0  0
   38.6436   37.1491   15.0700 F   0  0  0  0  0  0
   39.4925   36.5478   17.5157 H   0  0  0  0  0  0
   38.0900   35.9490   19.6580 F   0  0  0  0  0  0
   34.7302   35.5512   16.6305 H   0  0  0  0  0  0
   36.1346   36.5061   14.8212 H   0  0  0  0  0  0
  1  9  1  0  0  0
  1 14  1  0  0  0
  1 15  1  0  0  0
  1 16  1  0  0  0
  2  3  2  0  0  0
  2  7  1  0  0  0
  2 38  1  0  0  0
  3  4  1  0  0  0
  3 17  1  0  0  0
  4  5  1  0  0  0
  4 10  2  0  0  0
  5  6  2  0  0  0
  5 18  1  0  0  0
  6 12  1  0  0  0
  7  8  2  0  0  0
  7  9  1  0  0  0
  9 10  1  0  0  0
 10 11  1  0  0  0
 11 12  2  0  0  0
 12 13  1  0  0  0
 13 19  1  0  0  0
 13 20  1  0  0  0
 20 21  1  0  0  0
 20 22  1  0  0  0
 20 23  1  0  0  0
 21 24  1  0  0  0
 21 25  1  0  0  0
 21 26  1  0  0  0
 22 27  1  0  0  0
 22 28  1  0  0  0
 22 29  1  0  0  0
 25 33  1  0  0  0
 25 34  1  0  0  0
 25 35  1  0  0  0
 29 30  1  0  0  0
 29 31  1  0  0  0
 29 32  1  0  0  0
 32 37  1  0  0  0
 33 36  1  0  0  0
 38 42  1  0  0  0
 39 40  1  0  0  0
 39 44  2  0  0  0
 39 45  1  0  0  0
 40 41  2  0  0  0
 40 46  1  0  0  0
 41 42  1  0  0  0
 41 47  1  0  0  0
 42 43  2  0  0  0
 43 44  1  0  0  0
 43 48  1  0  0  0
 44 49  1  0  0  0
M  END
> <s_m_entry_id>
818

> <s_m_Source_Path>
/projects/mai/users/kmzp800_harry/pmx_colab/docking_jobs/p38/glide-dock_SP_p38_mcs_docking_2

> <s_m_Source_File>
glide-dock_SP_p38_mcs_docking_2_pv.maegz

> <i_m_Source_File_Index>
2

> <s_pdb_PDB_TITLE>
MX MODEL

> <r_i_docking_score>
-8.07297267644391

> <r_i_glide_gscore>
-8.07297267644391

> <r_i_glide_emodel>
-57.1377858559476

$$$$
lig_p38a_2ff
                    3D
 Schrodinger Suite 2021-4.
 49 52  0  0  1  0            999 V2000
   34.5518   35.0950   21.2353 C   0  0  0  0  0  0
   34.1063   38.9794   23.9533 C   0  0  0  0  0  0
   34.8847   37.9002   21.6203 C   0  0  0  0  0  0
   35.2215   37.2804   20.3424 C   0  0  0  0  0  0
   34.4219   37.0857   22.6725 C   0  0  0  0  0  0
   34.9466   39.2847   21.8581 C   0  0  0  0  0  0
   35.0624   35.9516   20.1630 C   0  0  0  0  0  0
   33.9116   34.8260   23.5776 C   0  0  0  0  0  0
   34.5517   39.8294   23.0294 N   0  0  0  0  0  0
   34.3258   33.9033   21.0324 O   0  0  0  0  0  0
   34.3349   35.6739   22.4511 N   0  0  0  0  0  0
   34.0467   37.6540   23.8391 N   0  0  0  0  0  0
   33.6376   39.5493   25.1200 N   0  0  0  0  0  0
   35.5627   37.9244   19.5446 H   0  0  0  0  0  0
   35.2991   39.9494   21.0888 H   0  0  0  0  0  0
   34.3137   35.1884   24.5241 H   0  0  0  0  0  0
   32.8242   34.8237   23.6540 H   0  0  0  0  0  0
   34.2466   33.7909   23.4913 H   0  0  0  0  0  0
   33.7521   40.5526   25.2183 H   0  0  0  0  0  0
   31.1299   37.4492   27.1484 C   0  0  0  0  0  0
   31.6894   38.2082   25.9336 C   0  0  0  0  0  0
   33.0700   38.8279   26.2543 C   0  0  2  0  0  0
   32.9494   39.7671   27.4706 C   0  0  0  0  0  0
   32.3653   39.0402   28.6935 C   0  0  0  0  0  0
   31.0155   38.3806   28.3633 C   0  0  2  0  0  0
   31.7807   36.6060   27.3842 H   0  0  0  0  0  0
   30.1530   37.0281   26.9070 H   0  0  0  0  0  0
   30.9894   38.9907   25.6364 H   0  0  0  0  0  0
   31.7532   37.5202   25.0913 H   0  0  0  0  0  0
   33.7623   38.0238   26.5092 H   0  0  0  0  0  0
   33.9263   40.1801   27.7251 H   0  0  0  0  0  0
   32.3138   40.6177   27.2193 H   0  0  0  0  0  0
   33.0719   38.2813   29.0327 H   0  0  0  0  0  0
   32.2464   39.7450   29.5175 H   0  0  0  0  0  0
   30.2813   39.1490   28.1337 H   0  0  0  0  0  0
   30.5521   37.6645   29.4867 O   0  0  0  0  0  0
   29.8483   38.1596   29.8891 H   0  0  0  0  0  0
   35.2719   35.3229   18.9603 O   0  0  0  0  0  0
   37.9295   36.6049   15.9926 C   0  0  0  0  0  0
   38.4295   36.3493   17.2877 C   0  0  0  0  0  0
   37.5396   36.0268   18.3333 C   0  0  0  0  0  0
   36.1774   35.7824   18.0385 C   0  0  0  0  0  0
   35.7521   35.8578   16.7037 C   0  0  0  0  0  0
   36.5877   36.3493   15.6923 C   0  0  0  0  0  0
   38.7106   37.1493   15.0432 F   0  0  0  0  0  0
   39.4680   36.5481   17.5080 H   0  0  0  0  0  0
   38.0010   35.9492   19.6019 F   0  0  0  0  0  0
   34.7342   35.5834   16.4637 H   0  0  0  0  0  0
   36.2137   36.5229   14.6896 H   0  0  0  0  0  0
  1  7  1  0  0  0
  1 10  2  0  0  0
  1 11  1  0  0  0
  2  9  1  0  0  0
  2 12  2  0  0  0
  2 13  1  0  0  0
  3  4  1  0  0  0
  3  5  2  0  0  0
  3  6  1  0  0  0
  4  7  2  0  0  0
  4 14  1  0  0  0
  5 11  1  0  0  0
  5 12  1  0  0  0
  6  9  2  0  0  0
  6 15  1  0  0  0
  7 38  1  0  0  0
  8 11  1  0  0  0
  8 16  1  0  0  0
  8 17  1  0  0  0
  8 18  1  0  0  0
 13 19  1  0  0  0
 13 22  1  0  0  0
 20 21  1  0  0  0
 20 25  1  0  0  0
 20 26  1  0  0  0
 20 27  1  0  0  0
 21 22  1  0  0  0
 21 28  1  0  0  0
 21 29  1  0  0  0
 22 23  1  0  0  0
 22 30  1  0  0  0
 23 24  1  0  0  0
 23 31  1  0  0  0
 23 32  1  0  0  0
 24 25  1  0  0  0
 24 33  1  0  0  0
 24 34  1  0  0  0
 25 35  1  0  0  0
 25 36  1  0  0  0
 36 37  1  0  0  0
 38 42  1  0  0  0
 39 40  1  0  0  0
 39 44  2  0  0  0
 39 45  1  0  0  0
 40 41  2  0  0  0
 40 46  1  0  0  0
 41 42  1  0  0  0
 41 47  1  0  0  0
 42 43  2  0  0  0
 43 44  1  0  0  0
 43 48  1  0  0  0
 44 49  1  0  0  0
M  END
> <s_m_entry_id>
819

> <s_m_Source_Path>
/projects/mai/users/kmzp800_harry/pmx_colab/docking_jobs/p38/glide-dock_SP_p38_mcs_docking_2

> <s_m_Source_File>
glide-dock_SP_p38_mcs_docking_2_pv.maegz

> <i_m_Source_File_Index>
3

> <s_pdb_PDB_TITLE>
MX MODEL

> <r_i_docking_score>
-8.04947342092117

> <r_i_glide_gscore>
-8.04947342092117

> <r_i_glide_emodel>
-57.3752884372117

$$$$
lig_p38a_2s
                    3D
 Schrodinger Suite 2021-4.
 54 57  0  0  1  0            999 V2000
   34.3331   35.0933   20.9290 C   0  0  0  0  0  0
   33.9988   38.9886   23.6710 C   0  0  0  0  0  0
   34.7668   37.8964   21.3376 C   0  0  0  0  0  0
   35.1566   37.2499   20.0880 C   0  0  0  0  0  0
   34.1493   37.1115   22.3338 C   0  0  0  0  0  0
   34.9485   39.2689   21.6202 C   0  0  0  0  0  0
   34.9662   35.9243   19.9006 C   0  0  0  0  0  0
   34.5522   39.8198   22.7863 N   0  0  0  0  0  0
   34.1611   33.8847   20.7490 O   0  0  0  0  0  0
   33.9174   35.7216   22.0677 N   0  0  0  0  0  0
   33.7745   37.6891   23.4959 N   0  0  0  0  0  0
   33.6348   39.5493   24.8782 N   0  0  0  0  0  0
   35.5907   37.8740   19.3196 H   0  0  0  0  0  0
   35.3998   39.9468   20.9100 H   0  0  0  0  0  0
   33.7982   40.5419   25.0051 H   0  0  0  0  0  0
   33.1161   34.9420   23.0390 C   0  0  0  0  0  0
   32.5198   35.5856   23.6817 H   0  0  0  0  0  0
   32.3671   34.3850   22.4715 H   0  0  0  0  0  0
   33.9201   33.9503   23.8993 C   0  0  2  0  0  0
   32.9516   33.1602   24.5573 O   0  0  0  0  0  0
   33.3650   32.3110   24.6984 H   0  0  0  0  0  0
   34.8331   34.6052   24.9541 C   0  0  0  0  0  0
   34.3026   35.3779   25.5125 H   0  0  0  0  0  0
   35.1834   33.8707   25.6796 H   0  0  0  0  0  0
   34.5048   33.2793   23.2727 H   0  0  0  0  0  0
   35.9615   35.1719   24.3211 O   0  0  0  0  0  0
   36.4779   34.4669   23.9632 H   0  0  0  0  0  0
   33.3503   38.5301   28.5406 C   0  0  0  0  0  0
   33.9312   39.2217   27.2981 C   0  0  0  0  0  0
   33.1396   38.8285   26.0432 C   0  0  0  0  0  0
   31.6528   39.1209   26.2860 C   0  0  0  0  0  0
   31.1776   38.4579   27.5927 C   0  0  0  0  0  0
   31.9815   38.8853   28.6868 O   0  0  0  0  0  0
   33.4474   37.4468   28.4616 H   0  0  0  0  0  0
   33.8964   38.8403   29.4366 H   0  0  0  0  0  0
   34.9817   38.9506   27.1833 H   0  0  0  0  0  0
   33.8991   40.3042   27.4422 H   0  0  0  0  0  0
   33.2593   37.7520   25.9051 H   0  0  0  0  0  0
   31.4848   40.1978   26.3428 H   0  0  0  0  0  0
   31.0529   38.7595   25.4483 H   0  0  0  0  0  0
   31.1941   37.3720   27.5122 H   0  0  0  0  0  0
   30.1501   38.7490   27.8050 H   0  0  0  0  0  0
   35.2561   35.2678   18.7283 O   0  0  0  0  0  0
   37.9466   36.6542   15.8548 C   0  0  0  0  0  0
   36.6072   36.4487   15.5006 C   0  0  0  0  0  0
   35.7498   35.9139   16.4789 C   0  0  0  0  0  0
   36.1543   35.7656   17.8197 C   0  0  0  0  0  0
   37.5057   35.9792   18.1626 C   0  0  0  0  0  0
   38.4184   36.3496   17.1546 C   0  0  0  0  0  0
   38.7622   37.1869   14.9317 F   0  0  0  0  0  0
   36.2287   36.7500   14.5350 H   0  0  0  0  0  0
   34.7288   35.6695   16.2083 H   0  0  0  0  0  0
   37.9192   35.8562   19.4443 F   0  0  0  0  0  0
   39.4513   36.5340   17.4143 H   0  0  0  0  0  0
  1  7  1  0  0  0
  1  9  2  0  0  0
  1 10  1  0  0  0
  2  8  1  0  0  0
  2 11  2  0  0  0
  2 12  1  0  0  0
  3  4  1  0  0  0
  3  5  2  0  0  0
  3  6  1  0  0  0
  4  7  2  0  0  0
  4 13  1  0  0  0
  5 10  1  0  0  0
  5 11  1  0  0  0
  6  8  2  0  0  0
  6 14  1  0  0  0
  7 43  1  0  0  0
 10 16  1  0  0  0
 12 15  1  0  0  0
 12 30  1  0  0  0
 16 17  1  0  0  0
 16 18  1  0  0  0
 16 19  1  0  0  0
 19 20  1  0  0  0
 19 22  1  0  0  0
 19 25  1  0  0  0
 20 21  1  0  0  0
 22 23  1  0  0  0
 22 24  1  0  0  0
 22 26  1  0  0  0
 26 27  1  0  0  0
 28 29  1  0  0  0
 28 33  1  0  0  0
 28 34  1  0  0  0
 28 35  1  0  0  0
 29 30  1  0  0  0
 29 36  1  0  0  0
 29 37  1  0  0  0
 30 31  1  0  0  0
 30 38  1  0  0  0
 31 32  1  0  0  0
 31 39  1  0  0  0
 31 40  1  0  0  0
 32 33  1  0  0  0
 32 41  1  0  0  0
 32 42  1  0  0  0
 43 47  1  0  0  0
 44 45  1  0  0  0
 44 49  2  0  0  0
 44 50  1  0  0  0
 45 46  2  0  0  0
 45 51  1  0  0  0
 46 47  1  0  0  0
 46 52  1  0  0  0
 47 48  2  0  0  0
 48 49  1  0  0  0
 48 53  1  0  0  0
 49 54  1  0  0  0
M  END
> <s_m_entry_id>
820

> <s_m_Source_Path>
/projects/mai/users/kmzp800_harry/pmx_colab/docking_jobs/p38/glide-dock_SP_p38_mcs_docking_2

> <s_m_Source_File>
glide-dock_SP_p38_mcs_docking_2_pv.maegz

> <i_m_Source_File_Index>
4

> <s_pdb_PDB_TITLE>
MX MODEL

> <r_i_docking_score>
-7.92417063747389

> <r_i_glide_gscore>
-7.92417063747389

> <r_i_glide_emodel>
-50.5971899345768

$$$$
lig_p38a_2u
                    3D
 Schrodinger Suite 2021-4.
 64 68  0  0  1  0            999 V2000
   34.3096   35.1076   21.2598 C   0  0  0  0  0  0
   34.1462   39.0355   23.9414 C   0  0  0  0  0  0
   34.7503   37.9186   21.5761 C   0  0  0  0  0  0
   35.1406   37.2391   20.3484 C   0  0  0  0  0  0
   34.1605   37.1552   22.6025 C   0  0  0  0  0  0
   34.9520   39.2924   21.8312 C   0  0  0  0  0  0
   34.9665   35.9054   20.2173 C   0  0  0  0  0  0
   34.6481   39.8564   23.0224 N   0  0  0  0  0  0
   34.1519   33.8969   21.1152 O   0  0  0  0  0  0
   33.8737   35.7652   22.3763 N   0  0  0  0  0  0
   33.8886   37.7490   23.7762 N   0  0  0  0  0  0
   33.9036   39.5495   25.1952 N   0  0  0  0  0  0
   35.5862   37.8373   19.5675 H   0  0  0  0  0  0
   35.3994   39.9371   21.0904 H   0  0  0  0  0  0
   34.0554   40.5437   25.3315 H   0  0  0  0  0  0
   33.2585   38.4036   28.7660 C   0  0  0  0  0  0
   33.9168   39.2132   27.6410 C   0  0  0  0  0  0
   33.3213   38.7945   26.2975 C   0  0  0  0  0  0
   31.7932   38.9392   26.3444 C   0  0  0  0  0  0
   31.2281   38.1662   27.5474 C   0  0  0  0  0  0
   31.8481   38.6119   28.7493 O   0  0  0  0  0  0
   33.4809   37.3400   28.6650 H   0  0  0  0  0  0
   33.6466   38.7171   29.7338 H   0  0  0  0  0  0
   34.9954   39.0526   27.6489 H   0  0  0  0  0  0
   33.7481   40.2784   27.8122 H   0  0  0  0  0  0
   33.5550   37.7367   26.1784 H   0  0  0  0  0  0
   31.5182   39.9925   26.4248 H   0  0  0  0  0  0
   31.3451   38.5630   25.4236 H   0  0  0  0  0  0
   31.3801   37.0917   27.4249 H   0  0  0  0  0  0
   30.1534   38.3276   27.6265 H   0  0  0  0  0  0
   35.3090   35.2027   19.0873 O   0  0  0  0  0  0
   37.8143   36.5777   16.0226 C   0  0  0  0  0  0
   38.3604   36.3493   17.3024 C   0  0  0  0  0  0
   37.5167   35.9988   18.3768 C   0  0  0  0  0  0
   36.1522   35.7073   18.1335 C   0  0  0  0  0  0
   35.6698   35.7881   16.8196 C   0  0  0  0  0  0
   36.4658   36.2913   15.7816 C   0  0  0  0  0  0
   38.5526   37.1485   15.0495 F   0  0  0  0  0  0
   39.3975   36.5845   17.4929 H   0  0  0  0  0  0
   38.0292   35.9469   19.6229 F   0  0  0  0  0  0
   34.6365   35.5391   16.6215 H   0  0  0  0  0  0
   36.0395   36.4629   14.8057 H   0  0  0  0  0  0
   30.8089   34.1035   24.0583 C   0  0  0  0  0  0
   31.7111   34.5008   22.8754 C   0  0  0  0  0  0
   33.0414   35.0691   23.4007 C   0  0  0  0  0  0
   33.7585   33.9844   24.2004 C   0  0  0  0  0  0
   32.8645   33.5159   25.3739 C   0  0  0  0  0  0
   31.4926   33.1418   24.9426 N   0  0  2  0  0  0
   30.5420   34.9853   24.6426 H   0  0  0  0  0  0
   29.8688   33.6837   23.6928 H   0  0  0  0  0  0
   31.2016   35.2585   22.2898 H   0  0  0  0  0  0
   31.8644   33.6484   22.2159 H   0  0  0  0  0  0
   32.7087   35.7807   24.1530 H   0  0  0  0  0  0
   34.0010   33.1493   23.5480 H   0  0  0  0  0  0
   34.7031   34.3626   24.5915 H   0  0  0  0  0  0
   32.7808   34.3173   26.1078 H   0  0  0  0  0  0
   33.3381   32.6856   25.8930 H   0  0  0  0  0  0
   30.9779   31.4812   24.9259 S   0  0  0  0  0  0
   31.7485   30.7413   25.9361 O   0  0  0  0  0  0
   31.4835   30.9008   23.2641 C   0  0  0  0  0  0
   29.5091   31.4733   24.9702 O   0  0  0  0  0  0
   31.2463   29.8441   23.1635 H   0  0  0  0  0  0
   30.9486   31.4640   22.4975 H   0  0  0  0  0  0
   32.5520   31.0481   23.1559 H   0  0  0  0  0  0
  1  7  1  0  0  0
  1  9  2  0  0  0
  1 10  1  0  0  0
  2  8  1  0  0  0
  2 11  2  0  0  0
  2 12  1  0  0  0
  3  4  1  0  0  0
  3  5  2  0  0  0
  3  6  1  0  0  0
  4  7  2  0  0  0
  4 13  1  0  0  0
  5 10  1  0  0  0
  5 11  1  0  0  0
  6  8  2  0  0  0
  6 14  1  0  0  0
  7 31  1  0  0  0
 10 45  1  0  0  0
 12 15  1  0  0  0
 12 18  1  0  0  0
 16 17  1  0  0  0
 16 21  1  0  0  0
 16 22  1  0  0  0
 16 23  1  0  0  0
 17 18  1  0  0  0
 17 24  1  0  0  0
 17 25  1  0  0  0
 18 19  1  0  0  0
 18 26  1  0  0  0
 19 20  1  0  0  0
 19 27  1  0  0  0
 19 28  1  0  0  0
 20 21  1  0  0  0
 20 29  1  0  0  0
 20 30  1  0  0  0
 31 35  1  0  0  0
 32 33  1  0  0  0
 32 37  2  0  0  0
 32 38  1  0  0  0
 33 34  2  0  0  0
 33 39  1  0  0  0
 34 35  1  0  0  0
 34 40  1  0  0  0
 35 36  2  0  0  0
 36 37  1  0  0  0
 36 41  1  0  0  0
 37 42  1  0  0  0
 43 44  1  0  0  0
 43 48  1  0  0  0
 43 49  1  0  0  0
 43 50  1  0  0  0
 44 45  1  0  0  0
 44 51  1  0  0  0
 44 52  1  0  0  0
 45 46  1  0  0  0
 45 53  1  0  0  0
 46 47  1  0  0  0
 46 54  1  0  0  0
 46 55  1  0  0  0
 47 48  1  0  0  0
 47 56  1  0  0  0
 47 57  1  0  0  0
 48 58  1  0  0  0
 58 59  2  0  0  0
 58 60  1  0  0  0
 58 61  2  0  0  0
 60 62  1  0  0  0
 60 63  1  0  0  0
 60 64  1  0  0  0
M  END
> <s_m_entry_id>
821

> <s_m_Source_Path>
/projects/mai/users/kmzp800_harry/pmx_colab/docking_jobs/p38/glide-dock_SP_p38_mcs_docking_2

> <s_m_Source_File>
glide-dock_SP_p38_mcs_docking_2_pv.maegz

> <i_m_Source_File_Index>
5

> <s_pdb_PDB_TITLE>
MX MODEL

> <r_i_docking_score>
-7.66553961933847

> <r_i_glide_gscore>
-7.66553961933847

> <r_i_glide_emodel>
-67.5475676409322

$$$$
lig_p38a_2q
                    3D
 Schrodinger Suite 2021-4.
 59 63  0  0  1  0            999 V2000
   34.4123   35.0728   21.1491 C   0  0  0  0  0  0
   34.0391   39.0001   23.8237 C   0  0  0  0  0  0
   34.7858   37.8864   21.5019 C   0  0  0  0  0  0
   35.1573   37.2375   20.2532 C   0  0  0  0  0  0
   34.2530   37.0936   22.5384 C   0  0  0  0  0  0
   34.9119   39.2712   21.7405 C   0  0  0  0  0  0
   34.9838   35.9082   20.0909 C   0  0  0  0  0  0
   34.5461   39.8303   22.9151 N   0  0  0  0  0  0
   34.1903   33.8794   20.9403 O   0  0  0  0  0  0
   34.1423   35.6701   22.3505 N   0  0  0  0  0  0
   33.8666   37.6948   23.6787 N   0  0  0  0  0  0
   33.6872   39.5495   25.0362 N   0  0  0  0  0  0
   35.5486   37.8627   19.4641 H   0  0  0  0  0  0
   35.3159   39.9336   20.9911 H   0  0  0  0  0  0
   33.8240   40.5489   25.1420 H   0  0  0  0  0  0
   34.3086   33.9493   25.8327 C   0  0  0  0  0  0
   34.6305   34.9565   24.7301 C   0  0  0  0  0  0
   33.6999   34.8228   23.4957 C   0  0  0  0  0  0
   32.1979   35.0223   23.8114 C   0  0  0  0  0  0
   31.6635   33.9807   24.8026 C   0  0  0  0  0  0
   34.4635   32.9357   25.4995 H   0  0  0  0  0  0
   34.9519   34.1033   26.6905 H   0  0  0  0  0  0
   35.6677   34.8188   24.4207 H   0  0  0  0  0  0
   34.5858   35.9397   25.1908 H   0  0  0  0  0  0
   33.7909   33.7678   23.2325 H   0  0  0  0  0  0
   32.0065   36.0155   24.2162 H   0  0  0  0  0  0
   31.6182   34.9529   22.8898 H   0  0  0  0  0  0
   31.7720   32.9689   24.4114 H   0  0  0  0  0  0
   30.6055   34.1460   25.0112 H   0  0  0  0  0  0
   32.5732   34.0791   26.3949 S   0  0  0  0  0  0
   32.2479   32.8995   27.2092 O   0  0  0  0  0  0
   32.3958   35.4314   26.9383 O   0  0  0  0  0  0
   33.5176   38.5161   28.7019 C   0  0  0  0  0  0
   34.0804   39.1831   27.4371 C   0  0  0  0  0  0
   33.2222   38.8271   26.2160 C   0  0  0  0  0  0
   31.7519   39.1497   26.5169 C   0  0  0  0  0  0
   31.3102   38.5060   27.8442 C   0  0  0  0  0  0
   32.1699   38.9297   28.8971 O   0  0  0  0  0  0
   34.1044   38.8087   29.5725 H   0  0  0  0  0  0
   33.5736   37.4287   28.6301 H   0  0  0  0  0  0
   34.0989   40.2649   27.5809 H   0  0  0  0  0  0
   35.1120   38.8680   27.2769 H   0  0  0  0  0  0
   33.3047   37.7514   26.0620 H   0  0  0  0  0  0
   31.1132   38.8039   25.7034 H   0  0  0  0  0  0
   31.6180   40.2303   26.5835 H   0  0  0  0  0  0
   30.2871   38.7903   28.0853 H   0  0  0  0  0  0
   31.3020   37.4214   27.7813 H   0  0  0  0  0  0
   35.2534   35.2504   18.9169 O   0  0  0  0  0  0
   37.9035   36.6063   15.9771 C   0  0  0  0  0  0
   38.4013   36.3493   17.2717 C   0  0  0  0  0  0
   37.5115   35.9980   18.3074 C   0  0  0  0  0  0
   36.1545   35.7294   18.0031 C   0  0  0  0  0  0
   35.7323   35.8197   16.6699 C   0  0  0  0  0  0
   36.5632   36.3473   15.6772 C   0  0  0  0  0  0
   38.6844   37.1493   15.0280 F   0  0  0  0  0  0
   39.4363   36.5584   17.4986 H   0  0  0  0  0  0
   37.9697   35.9183   19.5763 F   0  0  0  0  0  0
   34.7147   35.5494   16.4235 H   0  0  0  0  0  0
   36.1778   36.5415   14.6892 H   0  0  0  0  0  0
  1  7  1  0  0  0
  1  9  2  0  0  0
  1 10  1  0  0  0
  2  8  1  0  0  0
  2 11  2  0  0  0
  2 12  1  0  0  0
  3  4  1  0  0  0
  3  5  2  0  0  0
  3  6  1  0  0  0
  4  7  2  0  0  0
  4 13  1  0  0  0
  5 10  1  0  0  0
  5 11  1  0  0  0
  6  8  2  0  0  0
  6 14  1  0  0  0
  7 48  1  0  0  0
 10 18  1  0  0  0
 12 15  1  0  0  0
 12 35  1  0  0  0
 16 17  1  0  0  0
 16 21  1  0  0  0
 16 22  1  0  0  0
 16 30  1  0  0  0
 17 18  1  0  0  0
 17 23  1  0  0  0
 17 24  1  0  0  0
 18 19  1  0  0  0
 18 25  1  0  0  0
 19 20  1  0  0  0
 19 26  1  0  0  0
 19 27  1  0  0  0
 20 28  1  0  0  0
 20 29  1  0  0  0
 20 30  1  0  0  0
 30 31  2  0  0  0
 30 32  2  0  0  0
 33 34  1  0  0  0
 33 38  1  0  0  0
 33 39  1  0  0  0
 33 40  1  0  0  0
 34 35  1  0  0  0
 34 41  1  0  0  0
 34 42  1  0  0  0
 35 36  1  0  0  0
 35 43  1  0  0  0
 36 37  1  0  0  0
 36 44  1  0  0  0
 36 45  1  0  0  0
 37 38  1  0  0  0
 37 46  1  0  0  0
 37 47  1  0  0  0
 48 52  1  0  0  0
 49 50  1  0  0  0
 49 54  2  0  0  0
 49 55  1  0  0  0
 50 51  2  0  0  0
 50 56  1  0  0  0
 51 52  1  0  0  0
 51 57  1  0  0  0
 52 53  2  0  0  0
 53 54  1  0  0  0
 53 58  1  0  0  0
 54 59  1  0  0  0
M  END
> <s_m_entry_id>
822

> <s_m_Source_Path>
/projects/mai/users/kmzp800_harry/pmx_colab/docking_jobs/p38/glide-dock_SP_p38_mcs_docking_2

> <s_m_Source_File>
glide-dock_SP_p38_mcs_docking_2_pv.maegz

> <i_m_Source_File_Index>
6

> <s_pdb_PDB_TITLE>
MX MODEL

> <r_i_docking_score>
-7.59879038713607

> <r_i_glide_gscore>
-7.59879038713607

> <r_i_glide_emodel>
-63.7245262503479

$$$$
lig_p38a_2f
                    3D
 Schrodinger Suite 2021-4.
 46 49  0  0  1  0            999 V2000
   34.3989   35.1677   21.1321 C   0  0  0  0  0  0
   33.9510   39.0237   23.9195 C   0  0  0  0  0  0
   34.5136   38.0068   21.5040 C   0  0  0  0  0  0
   34.8352   37.4071   20.2200 C   0  0  0  0  0  0
   34.1532   37.1601   22.5699 C   0  0  0  0  0  0
   34.5560   39.3922   21.7549 C   0  0  0  0  0  0
   34.7783   36.0707   20.0424 C   0  0  0  0  0  0
   33.7501   34.8894   23.4858 C   0  0  0  0  0  0
   34.2811   39.9023   22.9746 N   0  0  0  0  0  0
   34.3738   33.9494   20.9613 O   0  0  0  0  0  0
   34.1063   35.7429   22.3375 N   0  0  0  0  0  0
   33.8745   37.7022   23.7742 N   0  0  0  0  0  0
   33.6840   39.5491   25.1660 N   0  0  0  0  0  0
   35.1051   38.0691   19.4108 H   0  0  0  0  0  0
   34.8277   40.0904   20.9787 H   0  0  0  0  0  0
   34.5108   34.9821   24.2630 H   0  0  0  0  0  0
   32.7999   35.2138   23.9102 H   0  0  0  0  0  0
   33.6400   33.8261   23.2632 H   0  0  0  0  0  0
   33.7512   40.5566   25.2645 H   0  0  0  0  0  0
   33.2575   38.4061   28.7651 C   0  0  0  0  0  0
   33.8411   39.2204   27.6021 C   0  0  0  0  0  0
   33.1630   38.7907   26.2978 C   0  0  0  0  0  0
   31.6398   38.9377   26.4390 C   0  0  0  0  0  0
   31.1466   38.1820   27.6878 C   0  0  0  0  0  0
   31.8527   38.6297   28.8411 O   0  0  0  0  0  0
   33.4660   37.3419   28.6448 H   0  0  0  0  0  0
   33.7155   38.7176   29.7050 H   0  0  0  0  0  0
   34.9205   39.0689   27.5459 H   0  0  0  0  0  0
   33.6837   40.2831   27.7836 H   0  0  0  0  0  0
   33.3785   37.7302   26.1644 H   0  0  0  0  0  0
   31.3719   39.9927   26.5129 H   0  0  0  0  0  0
   31.1333   38.5517   25.5534 H   0  0  0  0  0  0
   31.2756   37.1049   27.5705 H   0  0  0  0  0  0
   30.0792   38.3459   27.8384 H   0  0  0  0  0  0
   35.0451   35.4929   18.8256 O   0  0  0  0  0  0
   38.4665   36.4526   16.5886 C   0  0  0  0  0  0
   38.5521   36.3073   17.9782 C   0  0  0  0  0  0
   37.4046   36.0612   18.7466 C   0  0  0  0  0  0
   36.1579   35.8663   18.1143 C   0  0  0  0  0  0
   36.0816   35.9492   16.7079 C   0  0  0  0  0  0
   37.2136   36.3493   15.9690 C   0  0  0  0  0  0
   39.3514   36.7084   16.0221 H   0  0  0  0  0  0
   39.5152   36.3495   18.4643 H   0  0  0  0  0  0
   37.5000   35.9566   19.8169 H   0  0  0  0  0  0
   35.1350   35.8343   16.2012 H   0  0  0  0  0  0
   37.1003   36.7493   14.6888 F   0  0  0  0  0  0
  1  7  1  0  0  0
  1 10  2  0  0  0
  1 11  1  0  0  0
  2  9  1  0  0  0
  2 12  2  0  0  0
  2 13  1  0  0  0
  3  4  1  0  0  0
  3  5  2  0  0  0
  3  6  1  0  0  0
  4  7  2  0  0  0
  4 14  1  0  0  0
  5 11  1  0  0  0
  5 12  1  0  0  0
  6  9  2  0  0  0
  6 15  1  0  0  0
  7 35  1  0  0  0
  8 11  1  0  0  0
  8 16  1  0  0  0
  8 17  1  0  0  0
  8 18  1  0  0  0
 13 19  1  0  0  0
 13 22  1  0  0  0
 20 21  1  0  0  0
 20 25  1  0  0  0
 20 26  1  0  0  0
 20 27  1  0  0  0
 21 22  1  0  0  0
 21 28  1  0  0  0
 21 29  1  0  0  0
 22 23  1  0  0  0
 22 30  1  0  0  0
 23 24  1  0  0  0
 23 31  1  0  0  0
 23 32  1  0  0  0
 24 25  1  0  0  0
 24 33  1  0  0  0
 24 34  1  0  0  0
 35 39  1  0  0  0
 36 37  1  0  0  0
 36 41  2  0  0  0
 36 42  1  0  0  0
 37 38  2  0  0  0
 37 43  1  0  0  0
 38 39  1  0  0  0
 38 44  1  0  0  0
 39 40  2  0  0  0
 40 41  1  0  0  0
 40 45  1  0  0  0
 41 46  1  0  0  0
M  END
> <s_m_entry_id>
823

> <s_m_Source_Path>
/projects/mai/users/kmzp800_harry/pmx_colab/docking_jobs/p38/glide-dock_SP_p38_mcs_docking_2

> <s_m_Source_File>
glide-dock_SP_p38_mcs_docking_2_pv.maegz

> <i_m_Source_File_Index>
7

> <s_pdb_PDB_TITLE>
MX MODEL

> <r_i_docking_score>
-7.54317867267466

> <r_i_glide_gscore>
-7.54317867267466

> <r_i_glide_emodel>
-54.4238755707714

$$$$
lig_p38a_2n
                    3D
 Schrodinger Suite 2021-4.
 53 56  0  0  1  0            999 V2000
   34.3022   35.0540   21.0655 C   0  0  0  0  0  0
   34.0290   38.9905   23.7439 C   0  0  0  0  0  0
   34.7094   37.8689   21.3999 C   0  0  0  0  0  0
   35.1117   37.1944   20.1695 C   0  0  0  0  0  0
   34.1156   37.1022   22.4212 C   0  0  0  0  0  0
   34.8965   39.2436   21.6522 C   0  0  0  0  0  0
   34.9391   35.8600   20.0249 C   0  0  0  0  0  0
   34.5517   39.8071   22.8312 N   0  0  0  0  0  0
   34.1526   33.8392   20.9225 O   0  0  0  0  0  0
   33.8949   35.7046   22.1915 N   0  0  0  0  0  0
   33.7888   37.6925   23.5901 N   0  0  0  0  0  0
   33.7493   39.5496   24.9733 N   0  0  0  0  0  0
   35.5510   37.8017   19.3919 H   0  0  0  0  0  0
   35.3444   39.8916   20.9149 H   0  0  0  0  0  0
   33.9344   40.5398   25.0888 H   0  0  0  0  0  0
   33.2266   34.9308   23.2497 C   0  0  0  0  0  0
   32.5149   35.5587   23.7871 H   0  0  0  0  0  0
   32.6045   34.1365   22.8324 H   0  0  0  0  0  0
   34.2458   34.3326   24.2295 C   0  0  0  0  0  0
   34.8164   33.5488   23.7321 H   0  0  0  0  0  0
   34.9662   35.0937   24.5334 H   0  0  0  0  0  0
   33.5432   33.7933   25.4790 C   0  0  0  0  0  0
   33.0739   34.6013   26.0415 H   0  0  0  0  0  0
   32.7632   33.0799   25.2102 H   0  0  0  0  0  0
   34.4907   33.1493   26.2892 O   0  0  0  0  0  0
   34.7930   32.3959   25.7950 H   0  0  0  0  0  0
   33.3322   38.5398   28.6240 C   0  0  0  0  0  0
   33.9572   39.2420   27.4087 C   0  0  0  0  0  0
   33.2114   38.8432   26.1296 C   0  0  0  0  0  0
   31.7141   39.1293   26.3103 C   0  0  0  0  0  0
   31.1938   38.4509   27.5881 C   0  0  0  0  0  0
   31.9526   38.8788   28.7148 O   0  0  0  0  0  0
   33.4499   37.4573   28.5537 H   0  0  0  0  0  0
   33.8338   38.8563   29.5387 H   0  0  0  0  0  0
   35.0127   38.9794   27.3292 H   0  0  0  0  0  0
   33.9101   40.3229   27.5511 H   0  0  0  0  0  0
   33.3416   37.7679   26.0022 H   0  0  0  0  0  0
   31.5455   40.2052   26.3771 H   0  0  0  0  0  0
   31.1501   38.7764   25.4461 H   0  0  0  0  0  0
   31.2345   37.3642   27.4981 H   0  0  0  0  0  0
   30.1519   38.7189   27.7533 H   0  0  0  0  0  0
   35.2780   35.1627   18.8930 O   0  0  0  0  0  0
   37.8280   36.6213   15.9303 C   0  0  0  0  0  0
   36.4884   36.3392   15.6559 C   0  0  0  0  0  0
   35.6873   35.7782   16.6519 C   0  0  0  0  0  0
   36.1502   35.6644   17.9674 C   0  0  0  0  0  0
   37.5027   35.9502   18.2541 C   0  0  0  0  0  0
   38.3632   36.3493   17.2099 C   0  0  0  0  0  0
   38.5592   37.2142   14.9713 F   0  0  0  0  0  0
   36.0723   36.5644   14.6892 H   0  0  0  0  0  0
   34.6581   35.5360   16.4292 H   0  0  0  0  0  0
   37.9612   35.8721   19.5248 F   0  0  0  0  0  0
   39.3947   36.5859   17.4253 H   0  0  0  0  0  0
  1  7  1  0  0  0
  1  9  2  0  0  0
  1 10  1  0  0  0
  2  8  1  0  0  0
  2 11  2  0  0  0
  2 12  1  0  0  0
  3  4  1  0  0  0
  3  5  2  0  0  0
  3  6  1  0  0  0
  4  7  2  0  0  0
  4 13  1  0  0  0
  5 10  1  0  0  0
  5 11  1  0  0  0
  6  8  2  0  0  0
  6 14  1  0  0  0
  7 42  1  0  0  0
 10 16  1  0  0  0
 12 15  1  0  0  0
 12 29  1  0  0  0
 16 17  1  0  0  0
 16 18  1  0  0  0
 16 19  1  0  0  0
 19 20  1  0  0  0
 19 21  1  0  0  0
 19 22  1  0  0  0
 22 23  1  0  0  0
 22 24  1  0  0  0
 22 25  1  0  0  0
 25 26  1  0  0  0
 27 28  1  0  0  0
 27 32  1  0  0  0
 27 33  1  0  0  0
 27 34  1  0  0  0
 28 29  1  0  0  0
 28 35  1  0  0  0
 28 36  1  0  0  0
 29 30  1  0  0  0
 29 37  1  0  0  0
 30 31  1  0  0  0
 30 38  1  0  0  0
 30 39  1  0  0  0
 31 32  1  0  0  0
 31 40  1  0  0  0
 31 41  1  0  0  0
 42 46  1  0  0  0
 43 44  1  0  0  0
 43 48  2  0  0  0
 43 49  1  0  0  0
 44 45  2  0  0  0
 44 50  1  0  0  0
 45 46  1  0  0  0
 45 51  1  0  0  0
 46 47  2  0  0  0
 47 48  1  0  0  0
 47 52  1  0  0  0
 48 53  1  0  0  0
M  END
> <s_m_entry_id>
824

> <s_m_Source_Path>
/projects/mai/users/kmzp800_harry/pmx_colab/docking_jobs/p38/glide-dock_SP_p38_mcs_docking_2

> <s_m_Source_File>
glide-dock_SP_p38_mcs_docking_2_pv.maegz

> <i_m_Source_File_Index>
8

> <s_pdb_PDB_TITLE>
MX MODEL

> <r_i_docking_score>
-7.41895129984606

> <r_i_glide_gscore>
-7.41895129984606

> <r_i_glide_emodel>
-37.4314354454508

$$$$
lig_p38a_2k
                    3D
 Schrodinger Suite 2021-4.
 43 46  0  0  1  0            999 V2000
   34.6079   35.1685   21.2427 C   0  0  0  0  0  0
   34.1108   39.0266   23.9478 C   0  0  0  0  0  0
   34.7303   38.0071   21.5362 C   0  0  0  0  0  0
   35.0668   37.3690   20.2570 C   0  0  0  0  0  0
   34.3694   37.1815   22.6163 C   0  0  0  0  0  0
   34.7227   39.3945   21.7791 C   0  0  0  0  0  0
   35.0203   36.0206   20.1271 C   0  0  0  0  0  0
   34.0496   35.2194   23.1859 H   0  0  0  0  0  0
   34.4228   39.9058   22.9948 N   0  0  0  0  0  0
   34.5292   33.9492   21.1573 O   0  0  0  0  0  0
   34.3282   35.7899   22.4022 N   0  0  0  0  0  0
   34.0632   37.7024   23.8142 N   0  0  0  0  0  0
   33.8251   39.5493   25.1917 N   0  0  0  0  0  0
   35.3352   38.0079   19.4287 H   0  0  0  0  0  0
   34.9525   40.0949   20.9960 H   0  0  0  0  0  0
   33.8474   40.5597   25.2871 H   0  0  0  0  0  0
   33.2734   38.4001   28.7761 C   0  0  0  0  0  0
   33.9018   39.2132   27.6356 C   0  0  0  0  0  0
   33.2776   38.7844   26.3053 C   0  0  0  0  0  0
   31.7514   38.9256   26.3885 C   0  0  0  0  0  0
   31.2156   38.1561   27.6071 C   0  0  0  0  0  0
   31.8638   38.6082   28.7922 O   0  0  0  0  0  0
   33.6852   38.7196   29.7335 H   0  0  0  0  0  0
   33.4975   37.3370   28.6718 H   0  0  0  0  0  0
   33.7363   40.2782   27.8079 H   0  0  0  0  0  0
   34.9812   39.0573   27.6169 H   0  0  0  0  0  0
   33.5112   37.7271   26.1778 H   0  0  0  0  0  0
   31.2823   38.5512   25.4778 H   0  0  0  0  0  0
   31.4762   39.9780   26.4743 H   0  0  0  0  0  0
   30.1427   38.3173   27.7098 H   0  0  0  0  0  0
   31.3653   37.0823   27.4860 H   0  0  0  0  0  0
   35.2572   35.3610   18.9487 O   0  0  0  0  0  0
   37.9370   36.6044   15.9925 C   0  0  0  0  0  0
   38.4337   36.3493   17.2889 C   0  0  0  0  0  0
   37.5391   36.0355   18.3330 C   0  0  0  0  0  0
   36.1753   35.8069   18.0352 C   0  0  0  0  0  0
   35.7519   35.8738   16.7006 C   0  0  0  0  0  0
   36.5956   36.3492   15.6900 C   0  0  0  0  0  0
   38.7205   37.1493   15.0448 F   0  0  0  0  0  0
   39.4730   36.5423   17.5104 H   0  0  0  0  0  0
   37.9991   35.9494   19.6008 F   0  0  0  0  0  0
   34.7326   35.6064   16.4598 H   0  0  0  0  0  0
   36.2214   36.5241   14.6898 H   0  0  0  0  0  0
  1  7  1  0  0  0
  1 10  2  0  0  0
  1 11  1  0  0  0
  2  9  1  0  0  0
  2 12  2  0  0  0
  2 13  1  0  0  0
  3  4  1  0  0  0
  3  5  2  0  0  0
  3  6  1  0  0  0
  4  7  2  0  0  0
  4 14  1  0  0  0
  5 11  1  0  0  0
  5 12  1  0  0  0
  6  9  2  0  0  0
  6 15  1  0  0  0
  7 32  1  0  0  0
  8 11  1  0  0  0
 13 16  1  0  0  0
 13 19  1  0  0  0
 17 18  1  0  0  0
 17 22  1  0  0  0
 17 23  1  0  0  0
 17 24  1  0  0  0
 18 19  1  0  0  0
 18 25  1  0  0  0
 18 26  1  0  0  0
 19 20  1  0  0  0
 19 27  1  0  0  0
 20 21  1  0  0  0
 20 28  1  0  0  0
 20 29  1  0  0  0
 21 22  1  0  0  0
 21 30  1  0  0  0
 21 31  1  0  0  0
 32 36  1  0  0  0
 33 34  1  0  0  0
 33 38  2  0  0  0
 33 39  1  0  0  0
 34 35  2  0  0  0
 34 40  1  0  0  0
 35 36  1  0  0  0
 35 41  1  0  0  0
 36 37  2  0  0  0
 37 38  1  0  0  0
 37 42  1  0  0  0
 38 43  1  0  0  0
M  END
> <s_m_entry_id>
825

> <s_m_Source_Path>
/projects/mai/users/kmzp800_harry/pmx_colab/docking_jobs/p38/glide-dock_SP_p38_mcs_docking_2

> <s_m_Source_File>
glide-dock_SP_p38_mcs_docking_2_pv.maegz

> <i_m_Source_File_Index>
9

> <s_pdb_PDB_TITLE>
MX MODEL

> <r_i_docking_score>
-7.40290271828798

> <r_i_glide_gscore>
-7.40290271828798

> <r_i_glide_emodel>
-51.5149548874173

$$$$
lig_p38a_3fmk
                    3D
 Schrodinger Suite 2021-4.
 46 49  0  0  1  0            999 V2000
   33.8255   34.8293   23.6546 C   0  0  0  0  0  0
   34.8965   39.2706   21.8764 C   0  0  0  0  0  0
   33.4063   38.8450   26.4290 C   0  0  1  0  0  0
   31.8778   38.8633   26.6225 C   0  0  0  0  0  0
   34.1447   38.9787   24.0086 C   0  0  0  0  0  0
   34.4964   35.0636   21.3249 C   0  0  0  0  0  0
   35.0345   35.8938   20.2459 C   0  0  0  0  0  0
   35.1803   37.2296   20.3946 C   0  0  0  0  0  0
   34.8313   37.8794   21.6573 C   0  0  0  0  0  0
   34.3779   37.0790   22.7272 C   0  0  0  0  0  0
   33.8121   39.5492   25.2180 N   0  0  0  0  0  0
   34.2498   33.8725   21.1407 O   0  0  0  0  0  0
   34.2730   35.6651   22.5272 N   0  0  0  0  0  0
   34.0447   37.6582   23.9000 N   0  0  0  0  0  0
   34.5515   39.8214   23.0609 N   0  0  0  0  0  0
   34.1085   39.4791   27.6377 C   0  0  0  0  0  0
   31.1956   38.0230   25.6623 N   0  0  3  0  0  0
   31.1181   36.6848   25.7880 N   0  0  0  0  0  0
   30.4536   36.3975   24.6823 C   0  0  0  0  0  0
   30.1530   37.4877   23.9195 N   0  0  0  0  0  0
   30.6169   38.5143   24.5513 N   0  0  0  0  0  0
   34.2492   33.8239   23.6281 H   0  0  0  0  0  0
   34.1143   35.2424   24.6214 H   0  0  0  0  0  0
   32.7395   34.7369   23.6411 H   0  0  0  0  0  0
   35.2250   39.9472   21.1013 H   0  0  0  0  0  0
   33.7380   37.8071   26.3793 H   0  0  0  0  0  0
   31.4873   39.8797   26.5538 H   0  0  0  0  0  0
   31.6182   38.5000   27.6169 H   0  0  0  0  0  0
   35.5423   37.8552   19.5912 H   0  0  0  0  0  0
   33.8964   40.5584   25.2838 H   0  0  0  0  0  0
   33.8612   38.9497   28.5583 H   0  0  0  0  0  0
   35.1928   39.4480   27.5237 H   0  0  0  0  0  0
   33.8165   40.5223   27.7672 H   0  0  0  0  0  0
   30.1835   35.3870   24.4132 H   0  0  0  0  0  0
   35.2898   35.2235   19.0738 O   0  0  0  0  0  0
   37.8153   36.5992   16.0270 C   0  0  0  0  0  0
   38.3633   36.3493   17.3036 C   0  0  0  0  0  0
   37.5214   35.9623   18.3694 C   0  0  0  0  0  0
   36.1522   35.7061   18.1247 C   0  0  0  0  0  0
   35.6722   35.8064   16.8132 C   0  0  0  0  0  0
   36.4634   36.3361   15.7840 C   0  0  0  0  0  0
   38.5546   37.1500   15.0460 F   0  0  0  0  0  0
   39.4038   36.5681   17.4934 H   0  0  0  0  0  0
   38.0258   35.8867   19.6210 F   0  0  0  0  0  0
   34.6417   35.5496   16.6104 H   0  0  0  0  0  0
   36.0376   36.5237   14.8090 H   0  0  0  0  0  0
  1 13  1  0  0  0
  1 22  1  0  0  0
  1 23  1  0  0  0
  1 24  1  0  0  0
  2  9  1  0  0  0
  2 15  2  0  0  0
  2 25  1  0  0  0
  3  4  1  0  0  0
  3 11  1  0  0  0
  3 16  1  0  0  0
  3 26  1  0  0  0
  4 17  1  0  0  0
  4 27  1  0  0  0
  4 28  1  0  0  0
  5 11  1  0  0  0
  5 14  2  0  0  0
  5 15  1  0  0  0
  6  7  1  0  0  0
  6 12  2  0  0  0
  6 13  1  0  0  0
  7  8  2  0  0  0
  7 35  1  0  0  0
  8  9  1  0  0  0
  8 29  1  0  0  0
  9 10  2  0  0  0
 10 13  1  0  0  0
 10 14  1  0  0  0
 11 30  1  0  0  0
 16 31  1  0  0  0
 16 32  1  0  0  0
 16 33  1  0  0  0
 17 18  1  0  0  0
 17 21  1  0  0  0
 18 19  2  0  0  0
 19 20  1  0  0  0
 19 34  1  0  0  0
 20 21  2  0  0  0
 35 39  1  0  0  0
 36 37  1  0  0  0
 36 41  2  0  0  0
 36 42  1  0  0  0
 37 38  2  0  0  0
 37 43  1  0  0  0
 38 39  1  0  0  0
 38 44  1  0  0  0
 39 40  2  0  0  0
 40 41  1  0  0  0
 40 45  1  0  0  0
 41 46  1  0  0  0
M  END
> <s_m_entry_id>
826

> <s_m_Source_Path>
/projects/mai/users/kmzp800_harry/pmx_colab/docking_jobs/p38/glide-dock_SP_p38_mcs_docking_2

> <s_m_Source_File>
glide-dock_SP_p38_mcs_docking_2_pv.maegz

> <i_m_Source_File_Index>
10

> <s_pdb_PDB_TITLE>
MX MODEL

> <r_i_docking_score>
-7.39820925625809

> <r_i_glide_gscore>
-7.39820925625809

> <r_i_glide_emodel>
-41.2341639756469

$$$$
lig_p38a_2h
                    3D
 Schrodinger Suite 2021-4.
 46 49  0  0  1  0            999 V2000
   34.1941   35.0976   21.2444 C   0  0  0  0  0  0
   34.1536   38.9905   24.0142 C   0  0  0  0  0  0
   34.6191   37.9162   21.6017 C   0  0  0  0  0  0
   34.7864   37.3064   20.2928 C   0  0  0  0  0  0
   34.2168   37.1049   22.6809 C   0  0  0  0  0  0
   34.7848   39.2913   21.8484 C   0  0  0  0  0  0
   34.5580   35.9911   20.1354 C   0  0  0  0  0  0
   33.6966   34.8803   23.6400 C   0  0  0  0  0  0
   34.5516   39.8337   23.0633 N   0  0  0  0  0  0
   34.0522   33.8824   21.0969 O   0  0  0  0  0  0
   34.0500   35.6948   22.4650 N   0  0  0  0  0  0
   33.9907   37.6744   23.8831 N   0  0  0  0  0  0
   33.8933   39.5489   25.2497 N   0  0  0  0  0  0
   35.0272   37.9430   19.4537 H   0  0  0  0  0  0
   35.0952   39.9507   21.0553 H   0  0  0  0  0  0
   34.3938   35.0718   24.4565 H   0  0  0  0  0  0
   32.6961   35.1465   23.9846 H   0  0  0  0  0  0
   33.7062   33.8019   23.4751 H   0  0  0  0  0  0
   33.9810   40.5567   25.3340 H   0  0  0  0  0  0
   33.3038   38.3700   28.8166 C   0  0  0  0  0  0
   33.9821   39.1559   27.6869 C   0  0  0  0  0  0
   33.2864   38.8299   26.3639 C   0  0  0  0  0  0
   31.7867   39.1314   26.4900 C   0  0  0  0  0  0
   31.2030   38.3746   27.6946 C   0  0  0  0  0  0
   31.9222   38.7134   28.8769 O   0  0  0  0  0  0
   33.4185   37.2948   28.6708 H   0  0  0  0  0  0
   33.7688   38.6127   29.7728 H   0  0  0  0  0  0
   35.0400   38.8957   27.6343 H   0  0  0  0  0  0
   33.9255   40.2260   27.8946 H   0  0  0  0  0  0
   33.3976   37.7557   26.2148 H   0  0  0  0  0  0
   31.6299   40.2035   26.6182 H   0  0  0  0  0  0
   31.2600   38.8422   25.5804 H   0  0  0  0  0  0
   31.2411   37.2963   27.5287 H   0  0  0  0  0  0
   30.1541   38.6340   27.8345 H   0  0  0  0  0  0
   34.5528   35.1495   18.5750 S   0  0  0  0  0  0
   38.4502   36.3486   16.5204 C   0  0  0  0  0  0
   38.4115   36.2359   17.9199 C   0  0  0  0  0  0
   37.1960   35.9493   18.5664 C   0  0  0  0  0  0
   36.0369   35.6974   17.7980 C   0  0  0  0  0  0
   36.0985   35.7551   16.3907 C   0  0  0  0  0  0
   37.2985   36.1172   15.7595 C   0  0  0  0  0  0
   39.3523   36.6231   16.0122 H   0  0  0  0  0  0
   39.3159   36.3498   18.4988 H   0  0  0  0  0  0
   37.1837   35.8582   19.6428 H   0  0  0  0  0  0
   35.0153   35.4446   15.6410 F   0  0  0  0  0  0
   37.3524   36.2073   14.6891 H   0  0  0  0  0  0
  1  7  1  0  0  0
  1 10  2  0  0  0
  1 11  1  0  0  0
  2  9  1  0  0  0
  2 12  2  0  0  0
  2 13  1  0  0  0
  3  4  1  0  0  0
  3  5  2  0  0  0
  3  6  1  0  0  0
  4  7  2  0  0  0
  4 14  1  0  0  0
  5 11  1  0  0  0
  5 12  1  0  0  0
  6  9  2  0  0  0
  6 15  1  0  0  0
  7 35  1  0  0  0
  8 11  1  0  0  0
  8 16  1  0  0  0
  8 17  1  0  0  0
  8 18  1  0  0  0
 13 19  1  0  0  0
 13 22  1  0  0  0
 20 21  1  0  0  0
 20 25  1  0  0  0
 20 26  1  0  0  0
 20 27  1  0  0  0
 21 22  1  0  0  0
 21 28  1  0  0  0
 21 29  1  0  0  0
 22 23  1  0  0  0
 22 30  1  0  0  0
 23 24  1  0  0  0
 23 31  1  0  0  0
 23 32  1  0  0  0
 24 25  1  0  0  0
 24 33  1  0  0  0
 24 34  1  0  0  0
 35 39  1  0  0  0
 36 37  1  0  0  0
 36 41  2  0  0  0
 36 42  1  0  0  0
 37 38  2  0  0  0
 37 43  1  0  0  0
 38 39  1  0  0  0
 38 44  1  0  0  0
 39 40  2  0  0  0
 40 41  1  0  0  0
 40 45  1  0  0  0
 41 46  1  0  0  0
M  END
> <s_m_entry_id>
827

> <s_m_Source_Path>
/projects/mai/users/kmzp800_harry/pmx_colab/docking_jobs/p38/glide-dock_SP_p38_mcs_docking_2

> <s_m_Source_File>
glide-dock_SP_p38_mcs_docking_2_pv.maegz

> <i_m_Source_File_Index>
11

> <s_pdb_PDB_TITLE>
MX MODEL

> <r_i_docking_score>
-7.38556907444391

> <r_i_glide_gscore>
-7.38556907444391

> <r_i_glide_emodel>
-55.9598075746857

$$$$
lig_p38a_3flz
                    3D
 Schrodinger Suite 2021-4.
 46 49  0  0  1  0            999 V2000
   34.9507   37.4047   20.2090 C   0  0  0  0  0  0
   34.2308   37.1678   22.5485 C   0  0  0  0  0  0
   34.5955   38.0173   21.4882 C   0  0  0  0  0  0
   34.5769   39.4055   21.7453 C   0  0  0  0  0  0
   33.9362   39.0216   23.8992 C   0  0  0  0  0  0
   34.9313   36.0602   20.0612 C   0  0  0  0  0  0
   33.8592   34.9093   23.4973 C   0  0  0  0  0  0
   34.5460   33.9491   20.9977 O   0  0  0  0  0  0
   34.5513   35.1691   21.1567 C   0  0  0  0  0  0
   34.2590   39.9112   22.9610 N   0  0  0  0  0  0
   34.2289   35.7512   22.3452 N   0  0  0  0  0  0
   33.8961   37.7017   23.7349 N   0  0  0  0  0  0
   33.6560   39.4971   25.1718 N   0  0  0  0  0  0
   35.1997   38.0584   19.3860 H   0  0  0  0  0  0
   34.8279   40.1121   20.9724 H   0  0  0  0  0  0
   34.5431   35.0858   24.3287 H   0  0  0  0  0  0
   32.8544   35.1630   23.8371 H   0  0  0  0  0  0
   33.8667   33.8369   23.3060 H   0  0  0  0  0  0
   33.7524   40.4933   25.3434 H   0  0  0  0  0  0
   32.9496   39.7921   28.4804 C   0  0  0  0  0  0
   34.0453   39.1299   27.6412 C   0  0  0  0  0  0
   33.5281   38.5746   26.3036 C   0  0  0  0  0  0
   32.1229   37.9524   26.4206 C   0  0  0  0  0  0
   31.1901   38.7509   27.3288 C   0  0  0  0  0  0
   31.8241   38.9308   28.5875 O   0  0  0  0  0  0
   33.3250   40.0052   29.4815 H   0  0  0  0  0  0
   32.6550   40.7487   28.0455 H   0  0  0  0  0  0
   34.4385   38.2963   28.2245 H   0  0  0  0  0  0
   34.8852   39.8091   27.4868 H   0  0  0  0  0  0
   34.2135   37.7505   26.1009 H   0  0  0  0  0  0
   31.6727   37.8068   25.4381 H   0  0  0  0  0  0
   32.2285   36.9561   26.8513 H   0  0  0  0  0  0
   30.2506   38.2161   27.4753 H   0  0  0  0  0  0
   30.9522   39.7092   26.8684 H   0  0  0  0  0  0
   35.1705   35.4376   18.8645 O   0  0  0  0  0  0
   38.1889   36.5270   16.1909 C   0  0  0  0  0  0
   38.5083   36.3492   17.5509 C   0  0  0  0  0  0
   37.4932   36.0530   18.4853 C   0  0  0  0  0  0
   36.1688   35.8600   18.0329 C   0  0  0  0  0  0
   35.8790   35.9493   16.6598 C   0  0  0  0  0  0
   36.8698   36.3476   15.7477 C   0  0  0  0  0  0
   38.9587   36.8020   15.4866 H   0  0  0  0  0  0
   39.5291   36.4713   17.8814 H   0  0  0  0  0  0
   37.7388   35.9346   19.5308 H   0  0  0  0  0  0
   34.8807   35.7411   16.3072 H   0  0  0  0  0  0
   36.6315   36.4953   14.7056 H   0  0  0  0  0  0
  1  3  1  0  0  0
  1  6  2  0  0  0
  1 14  1  0  0  0
  2  3  1  0  0  0
  2 11  1  0  0  0
  2 12  2  0  0  0
  3  4  2  0  0  0
  4 10  1  0  0  0
  4 15  1  0  0  0
  5 10  2  0  0  0
  5 12  1  0  0  0
  5 13  1  0  0  0
  6  9  1  0  0  0
  6 35  1  0  0  0
  7 11  1  0  0  0
  7 16  1  0  0  0
  7 17  1  0  0  0
  7 18  1  0  0  0
  8  9  2  0  0  0
  9 11  1  0  0  0
 13 19  1  0  0  0
 13 22  1  0  0  0
 20 21  1  0  0  0
 20 25  1  0  0  0
 20 26  1  0  0  0
 20 27  1  0  0  0
 21 22  1  0  0  0
 21 28  1  0  0  0
 21 29  1  0  0  0
 22 23  1  0  0  0
 22 30  1  0  0  0
 23 24  1  0  0  0
 23 31  1  0  0  0
 23 32  1  0  0  0
 24 25  1  0  0  0
 24 33  1  0  0  0
 24 34  1  0  0  0
 35 39  1  0  0  0
 36 37  1  0  0  0
 36 41  2  0  0  0
 36 42  1  0  0  0
 37 38  2  0  0  0
 37 43  1  0  0  0
 38 39  1  0  0  0
 38 44  1  0  0  0
 39 40  2  0  0  0
 40 41  1  0  0  0
 40 45  1  0  0  0
 41 46  1  0  0  0
M  END
> <s_m_entry_id>
828

> <s_m_Source_Path>
/projects/mai/users/kmzp800_harry/pmx_colab/docking_jobs/p38/glide-dock_SP_p38_mcs_docking_2

> <s_m_Source_File>
glide-dock_SP_p38_mcs_docking_2_pv.maegz

> <i_m_Source_File_Index>
12

> <s_pdb_PDB_TITLE>
MX MODEL

> <r_i_docking_score>
-7.36440742058912

> <r_i_glide_gscore>
-7.36440742058912

> <r_i_glide_emodel>
-55.5610819756562

$$$$
lig_p38a_2c
                    3D
 Schrodinger Suite 2021-4.
 45 48  0  0  1  0            999 V2000
   34.5653   35.1852   21.1658 C   0  0  0  0  0  0
   34.1993   39.0094   24.0430 C   0  0  0  0  0  0
   34.6760   38.0175   21.6033 C   0  0  0  0  0  0
   34.8787   37.4481   20.2878 C   0  0  0  0  0  0
   34.4047   37.1501   22.6752 C   0  0  0  0  0  0
   34.6999   39.4006   21.8607 C   0  0  0  0  0  0
   34.1634   34.8490   23.5662 C   0  0  0  0  0  0
   34.4674   39.8983   23.0892 N   0  0  0  0  0  0
   34.5482   33.9651   20.9745 O   0  0  0  0  0  0
   34.3904   35.7339   22.4127 N   0  0  0  0  0  0
   34.1648   37.6795   23.8998 N   0  0  0  0  0  0
   33.9429   39.5493   25.2884 N   0  0  0  0  0  0
   35.0553   38.1409   19.4768 H   0  0  0  0  0  0
   34.8960   40.1119   21.0756 H   0  0  0  0  0  0
   34.8119   35.1303   24.3967 H   0  0  0  0  0  0
   33.1301   34.9401   23.9016 H   0  0  0  0  0  0
   34.3568   33.7921   23.3766 H   0  0  0  0  0  0
   33.9616   40.5619   25.3597 H   0  0  0  0  0  0
   34.7967   36.1229   20.0543 C   0  0  0  0  0  0
   35.1324   35.0000   15.9201 C   0  0  0  0  0  0
   36.2444   35.5494   16.5900 C   0  0  0  0  0  0
   36.1655   35.8647   17.9630 C   0  0  0  0  0  0
   34.9511   35.6733   18.6597 C   0  0  0  0  0  0
   33.8471   35.0998   17.9920 C   0  0  0  0  0  0
   33.9425   34.7493   16.6298 C   0  0  0  0  0  0
   35.1970   34.7488   14.8722 H   0  0  0  0  0  0
   37.1714   35.7022   16.0571 H   0  0  0  0  0  0
   37.6006   36.3493   18.7994 Cl  0  0  0  0  0  0
   32.9147   34.9351   18.5152 H   0  0  0  0  0  0
   33.0871   34.3189   16.1288 H   0  0  0  0  0  0
   33.3589   38.3507   28.8498 C   0  0  0  0  0  0
   34.0543   39.1147   27.7156 C   0  0  0  0  0  0
   33.3316   38.8262   26.3950 C   0  0  0  0  0  0
   31.8449   39.1826   26.5472 C   0  0  0  0  0  0
   31.2459   38.4435   27.7560 C   0  0  0  0  0  0
   31.9931   38.7491   28.9302 O   0  0  0  0  0  0
   33.4267   37.2732   28.6974 H   0  0  0  0  0  0
   33.8446   38.5707   29.8009 H   0  0  0  0  0  0
   35.0999   38.8121   27.6488 H   0  0  0  0  0  0
   34.0450   40.1847   27.9301 H   0  0  0  0  0  0
   33.4007   37.7525   26.2173 H   0  0  0  0  0  0
   31.7339   40.2587   26.6873 H   0  0  0  0  0  0
   31.2931   38.9245   25.6423 H   0  0  0  0  0  0
   31.2386   37.3651   27.5887 H   0  0  0  0  0  0
   30.2100   38.7449   27.9089 H   0  0  0  0  0  0
  1  9  2  0  0  0
  1 10  1  0  0  0
  1 19  1  0  0  0
  2  8  1  0  0  0
  2 11  2  0  0  0
  2 12  1  0  0  0
  3  4  1  0  0  0
  3  5  2  0  0  0
  3  6  1  0  0  0
  4 13  1  0  0  0
  4 19  2  0  0  0
  5 10  1  0  0  0
  5 11  1  0  0  0
  6  8  2  0  0  0
  6 14  1  0  0  0
  7 10  1  0  0  0
  7 15  1  0  0  0
  7 16  1  0  0  0
  7 17  1  0  0  0
 12 18  1  0  0  0
 12 33  1  0  0  0
 19 23  1  0  0  0
 20 21  1  0  0  0
 20 25  2  0  0  0
 20 26  1  0  0  0
 21 22  2  0  0  0
 21 27  1  0  0  0
 22 23  1  0  0  0
 22 28  1  0  0  0
 23 24  2  0  0  0
 24 25  1  0  0  0
 24 29  1  0  0  0
 25 30  1  0  0  0
 31 32  1  0  0  0
 31 36  1  0  0  0
 31 37  1  0  0  0
 31 38  1  0  0  0
 32 33  1  0  0  0
 32 39  1  0  0  0
 32 40  1  0  0  0
 33 34  1  0  0  0
 33 41  1  0  0  0
 34 35  1  0  0  0
 34 42  1  0  0  0
 34 43  1  0  0  0
 35 36  1  0  0  0
 35 44  1  0  0  0
 35 45  1  0  0  0
M  END
> <s_m_entry_id>
829

> <s_m_Source_Path>
/projects/mai/users/kmzp800_harry/pmx_colab/docking_jobs/p38/glide-dock_SP_p38_mcs_docking_2

> <s_m_Source_File>
glide-dock_SP_p38_mcs_docking_2_pv.maegz

> <i_m_Source_File_Index>
13

> <s_pdb_PDB_TITLE>
MX MODEL

> <chiral flag>
1

> <r_i_docking_score>
-7.31399636266853

> <r_i_glide_gscore>
-7.31399636266853

> <r_i_glide_emodel>
-62.2484744721663

$$$$
lig_p38a_2e
                    3D
 Schrodinger Suite 2021-4.
 46 49  0  0  1  0            999 V2000
   34.4906   35.0843   21.2501 C   0  0  0  0  0  0
   34.1220   38.9874   23.9565 C   0  0  0  0  0  0
   34.8294   37.8973   21.6073 C   0  0  0  0  0  0
   35.1698   37.2616   20.3393 C   0  0  0  0  0  0
   34.3625   37.0913   22.6641 C   0  0  0  0  0  0
   34.9078   39.2837   21.8393 C   0  0  0  0  0  0
   35.0159   35.9293   20.1763 C   0  0  0  0  0  0
   33.8207   34.8488   23.5896 C   0  0  0  0  0  0
   34.5521   39.8325   23.0214 N   0  0  0  0  0  0
   34.2655   33.8903   21.0580 O   0  0  0  0  0  0
   34.2606   35.6785   22.4555 N   0  0  0  0  0  0
   34.0141   37.6665   23.8335 N   0  0  0  0  0  0
   33.7687   39.5493   25.1656 N   0  0  0  0  0  0
   35.5189   37.8958   19.5368 H   0  0  0  0  0  0
   35.2580   39.9493   21.0681 H   0  0  0  0  0  0
   34.2700   35.1870   24.5240 H   0  0  0  0  0  0
   32.7374   34.9098   23.6966 H   0  0  0  0  0  0
   34.0904   33.7953   23.4961 H   0  0  0  0  0  0
   33.8491   40.5572   25.2521 H   0  0  0  0  0  0
   33.3326   38.4314   28.7782 C   0  0  0  0  0  0
   33.9564   39.1918   27.5990 C   0  0  0  0  0  0
   33.2245   38.8209   26.3055 C   0  0  0  0  0  0
   31.7230   39.0864   26.4799 C   0  0  0  0  0  0
   31.2017   38.3494   27.7250 C   0  0  0  0  0  0
   31.9465   38.7465   28.8723 O   0  0  0  0  0  0
   33.4677   37.3545   28.6662 H   0  0  0  0  0  0
   33.8217   38.7187   29.7091 H   0  0  0  0  0  0
   35.0167   38.9495   27.5184 H   0  0  0  0  0  0
   33.8885   40.2663   27.7780 H   0  0  0  0  0  0
   33.3583   37.7485   26.1630 H   0  0  0  0  0  0
   31.5420   40.1569   26.5874 H   0  0  0  0  0  0
   31.1721   38.7608   25.5968 H   0  0  0  0  0  0
   31.2653   37.2683   27.5927 H   0  0  0  0  0  0
   30.1520   38.5855   27.8909 H   0  0  0  0  0  0
   35.2467   35.2868   18.9865 O   0  0  0  0  0  0
   37.9427   36.6052   16.0713 C   0  0  0  0  0  0
   38.4208   36.3493   17.3753 C   0  0  0  0  0  0
   37.5143   36.0028   18.4015 C   0  0  0  0  0  0
   36.1593   35.7559   18.0803 C   0  0  0  0  0  0
   35.7521   35.8488   16.7439 C   0  0  0  0  0  0
   36.6047   36.3494   15.7546 C   0  0  0  0  0  0
   38.7359   37.1494   15.1292 F   0  0  0  0  0  0
   39.4579   36.5378   17.6112 H   0  0  0  0  0  0
   37.8673   35.8834   19.4156 H   0  0  0  0  0  0
   34.7374   35.5786   16.4857 H   0  0  0  0  0  0
   36.2362   36.5351   14.7577 H   0  0  0  0  0  0
  1  7  1  0  0  0
  1 10  2  0  0  0
  1 11  1  0  0  0
  2  9  1  0  0  0
  2 12  2  0  0  0
  2 13  1  0  0  0
  3  4  1  0  0  0
  3  5  2  0  0  0
  3  6  1  0  0  0
  4  7  2  0  0  0
  4 14  1  0  0  0
  5 11  1  0  0  0
  5 12  1  0  0  0
  6  9  2  0  0  0
  6 15  1  0  0  0
  7 35  1  0  0  0
  8 11  1  0  0  0
  8 16  1  0  0  0
  8 17  1  0  0  0
  8 18  1  0  0  0
 13 19  1  0  0  0
 13 22  1  0  0  0
 20 21  1  0  0  0
 20 25  1  0  0  0
 20 26  1  0  0  0
 20 27  1  0  0  0
 21 22  1  0  0  0
 21 28  1  0  0  0
 21 29  1  0  0  0
 22 23  1  0  0  0
 22 30  1  0  0  0
 23 24  1  0  0  0
 23 31  1  0  0  0
 23 32  1  0  0  0
 24 25  1  0  0  0
 24 33  1  0  0  0
 24 34  1  0  0  0
 35 39  1  0  0  0
 36 37  1  0  0  0
 36 41  2  0  0  0
 36 42  1  0  0  0
 37 38  2  0  0  0
 37 43  1  0  0  0
 38 39  1  0  0  0
 38 44  1  0  0  0
 39 40  2  0  0  0
 40 41  1  0  0  0
 40 45  1  0  0  0
 41 46  1  0  0  0
M  END
> <s_m_entry_id>
830

> <s_m_Source_Path>
/projects/mai/users/kmzp800_harry/pmx_colab/docking_jobs/p38/glide-dock_SP_p38_mcs_docking_2

> <s_m_Source_File>
glide-dock_SP_p38_mcs_docking_2_pv.maegz

> <i_m_Source_File_Index>
14

> <s_pdb_PDB_TITLE>
MX MODEL

> <r_i_docking_score>
-7.26839178758188

> <r_i_glide_gscore>
-7.26839178758188

> <r_i_glide_emodel>
-49.4385413402667

$$$$
lig_p38a_2y
                    3D
 Schrodinger Suite 2021-4.
 45 47  0  0  1  0            999 V2000
   34.5530   35.0626   21.0534 C   0  0  0  0  0  0
   34.2261   38.9790   23.7326 C   0  0  0  0  0  0
   34.8750   37.8815   21.3748 C   0  0  0  0  0  0
   35.1533   37.2417   20.0971 C   0  0  0  0  0  0
   34.5199   37.0717   22.4732 C   0  0  0  0  0  0
   34.8978   39.2740   21.5763 C   0  0  0  0  0  0
   35.0179   35.9065   19.9491 C   0  0  0  0  0  0
   34.0994   34.8133   23.4384 C   0  0  0  0  0  0
   34.5538   39.8269   22.7593 N   0  0  0  0  0  0
   34.3000   33.8712   20.8765 O   0  0  0  0  0  0
   34.4306   35.6540   22.2759 N   0  0  0  0  0  0
   34.2262   37.6501   23.6554 N   0  0  0  0  0  0
   33.7918   39.5493   24.9081 N   0  0  0  0  0  0
   35.4647   37.8739   19.2798 H   0  0  0  0  0  0
   35.1490   39.9482   20.7726 H   0  0  0  0  0  0
   34.4864   33.7943   23.3583 H   0  0  0  0  0  0
   34.5175   35.2182   24.3614 H   0  0  0  0  0  0
   33.0173   34.7579   23.5577 H   0  0  0  0  0  0
   33.8098   40.5598   24.9718 H   0  0  0  0  0  0
   33.0548   38.8509   25.9575 C   0  0  0  0  0  0
   33.1044   39.4990   26.8344 H   0  0  0  0  0  0
   33.5706   37.9320   26.2385 H   0  0  0  0  0  0
   31.5677   38.5599   25.6233 C   0  0  0  0  0  0
   31.3362   37.2501   24.8491 C   0  0  0  0  0  0
   30.9443   38.3649   26.8750 O   0  0  0  0  0  0
   30.8730   39.7352   24.9125 C   0  0  0  0  0  0
   31.6425   37.3415   23.8103 H   0  0  0  0  0  0
   30.2819   36.9730   24.8362 H   0  0  0  0  0  0
   31.8830   36.4175   25.2941 H   0  0  0  0  0  0
   31.3025   39.9140   23.9269 H   0  0  0  0  0  0
   29.8141   39.5350   24.7559 H   0  0  0  0  0  0
   30.9539   40.6628   25.4803 H   0  0  0  0  0  0
   30.0431   38.1086   26.7363 H   0  0  0  0  0  0
   35.2389   35.2648   18.7562 O   0  0  0  0  0  0
   37.9131   36.6618   15.8709 C   0  0  0  0  0  0
   38.4048   36.3505   17.1600 C   0  0  0  0  0  0
   37.5016   36.0026   18.1804 C   0  0  0  0  0  0
   36.1530   35.7380   17.8497 C   0  0  0  0  0  0
   35.7451   35.8669   16.5137 C   0  0  0  0  0  0
   36.5718   36.4349   15.5404 C   0  0  0  0  0  0
   38.7046   37.2231   14.9439 F   0  0  0  0  0  0
   39.4380   36.5436   17.4050 H   0  0  0  0  0  0
   37.9289   35.9394   19.4631 F   0  0  0  0  0  0
   34.7222   35.6219   16.2579 H   0  0  0  0  0  0
   36.1634   36.7495   14.5904 H   0  0  0  0  0  0
  1  7  1  0  0  0
  1 10  2  0  0  0
  1 11  1  0  0  0
  2  9  1  0  0  0
  2 12  2  0  0  0
  2 13  1  0  0  0
  3  4  1  0  0  0
  3  5  2  0  0  0
  3  6  1  0  0  0
  4  7  2  0  0  0
  4 14  1  0  0  0
  5 11  1  0  0  0
  5 12  1  0  0  0
  6  9  2  0  0  0
  6 15  1  0  0  0
  7 34  1  0  0  0
  8 11  1  0  0  0
  8 16  1  0  0  0
  8 17  1  0  0  0
  8 18  1  0  0  0
 13 19  1  0  0  0
 13 20  1  0  0  0
 20 21  1  0  0  0
 20 22  1  0  0  0
 20 23  1  0  0  0
 23 24  1  0  0  0
 23 25  1  0  0  0
 23 26  1  0  0  0
 24 27  1  0  0  0
 24 28  1  0  0  0
 24 29  1  0  0  0
 25 33  1  0  0  0
 26 30  1  0  0  0
 26 31  1  0  0  0
 26 32  1  0  0  0
 34 38  1  0  0  0
 35 36  1  0  0  0
 35 40  2  0  0  0
 35 41  1  0  0  0
 36 37  2  0  0  0
 36 42  1  0  0  0
 37 38  1  0  0  0
 37 43  1  0  0  0
 38 39  2  0  0  0
 39 40  1  0  0  0
 39 44  1  0  0  0
 40 45  1  0  0  0
M  END
> <s_m_entry_id>
831

> <s_m_Source_Path>
/projects/mai/users/kmzp800_harry/pmx_colab/docking_jobs/p38/glide-dock_SP_p38_mcs_docking_2

> <s_m_Source_File>
glide-dock_SP_p38_mcs_docking_2_pv.maegz

> <i_m_Source_File_Index>
15

> <s_pdb_PDB_TITLE>
MX MODEL

> <r_i_docking_score>
-7.26489586820766

> <r_i_glide_gscore>
-7.26489586820766

> <r_i_glide_emodel>
-38.9078995514225

$$$$
lig_p38a_2m
                    3D
 Schrodinger Suite 2021-4.
 50 54  0  0  1  0            999 V2000
   34.3840   35.1573   21.3382 C   0  0  0  0  0  0
   33.9353   39.1882   23.8403 C   0  0  0  0  0  0
   34.7395   37.9671   21.5942 C   0  0  0  0  0  0
   35.1740   37.2740   20.3892 C   0  0  0  0  0  0
   34.0941   37.2378   22.6172 C   0  0  0  0  0  0
   34.9482   39.3399   21.8062 C   0  0  0  0  0  0
   35.0130   35.9400   20.2730 C   0  0  0  0  0  0
   34.5405   39.9493   22.9343 N   0  0  0  0  0  0
   34.3189   33.9326   21.2550 O   0  0  0  0  0  0
   33.8843   35.8298   22.4163 N   0  0  0  0  0  0
   33.7055   37.8805   23.7453 N   0  0  0  0  0  0
   33.5066   39.8723   24.9578 N   0  0  0  0  0  0
   35.6063   37.8701   19.5983 H   0  0  0  0  0  0
   35.4496   39.9494   21.0718 H   0  0  0  0  0  0
   33.7517   40.8587   25.0001 H   0  0  0  0  0  0
   33.2422   35.0797   23.4722 C   0  0  0  0  0  0
   31.8611   35.4729   23.9666 C   0  0  0  0  0  0
   32.0337   34.2094   23.1675 C   0  0  0  0  0  0
   33.9182   34.6953   24.2344 H   0  0  0  0  0  0
   31.6612   35.3695   25.0312 H   0  0  0  0  0  0
   31.3493   36.2989   23.4765 H   0  0  0  0  0  0
   31.6363   34.2071   22.1538 H   0  0  0  0  0  0
   31.9560   33.2622   23.6978 H   0  0  0  0  0  0
   31.1760   38.2743   27.5672 C   0  0  0  0  0  0
   31.6374   38.6789   26.1548 C   0  0  0  0  0  0
   33.0100   39.3548   26.2283 C   0  0  0  0  0  0
   34.0124   38.4866   26.9943 C   0  0  0  0  0  0
   33.4265   38.1487   28.3747 C   0  0  0  0  0  0
   32.1682   37.4978   28.2306 O   0  0  0  0  0  0
   30.9527   39.1492   28.1724 H   0  0  0  0  0  0
   30.2546   37.6941   27.5071 H   0  0  0  0  0  0
   30.9040   39.3456   25.6998 H   0  0  0  0  0  0
   31.6859   37.7911   25.5272 H   0  0  0  0  0  0
   32.8685   40.2546   26.8295 H   0  0  0  0  0  0
   34.2188   37.5656   26.4481 H   0  0  0  0  0  0
   34.9624   39.0091   27.1098 H   0  0  0  0  0  0
   33.3094   39.0504   28.9781 H   0  0  0  0  0  0
   34.1027   37.4879   28.9171 H   0  0  0  0  0  0
   35.3518   35.2269   19.1487 O   0  0  0  0  0  0
   37.8252   36.5893   16.0535 C   0  0  0  0  0  0
   38.3867   36.3493   17.3249 C   0  0  0  0  0  0
   37.5513   36.0052   18.4084 C   0  0  0  0  0  0
   36.1813   35.7332   18.1824 C   0  0  0  0  0  0
   35.6860   35.8128   16.8749 C   0  0  0  0  0  0
   36.4709   36.3179   15.8292 C   0  0  0  0  0  0
   38.5521   37.1493   15.0664 F   0  0  0  0  0  0
   39.4306   36.5664   17.4971 H   0  0  0  0  0  0
   38.0740   35.9262   19.6511 F   0  0  0  0  0  0
   34.6548   35.5492   16.6860 H   0  0  0  0  0  0
   36.0360   36.4913   14.8575 H   0  0  0  0  0  0
  1  7  1  0  0  0
  1  9  2  0  0  0
  1 10  1  0  0  0
  2  8  1  0  0  0
  2 11  2  0  0  0
  2 12  1  0  0  0
  3  4  1  0  0  0
  3  5  2  0  0  0
  3  6  1  0  0  0
  4  7  2  0  0  0
  4 13  1  0  0  0
  5 10  1  0  0  0
  5 11  1  0  0  0
  6  8  2  0  0  0
  6 14  1  0  0  0
  7 39  1  0  0  0
 10 16  1  0  0  0
 12 15  1  0  0  0
 12 26  1  0  0  0
 16 17  1  0  0  0
 16 18  1  0  0  0
 16 19  1  0  0  0
 17 18  1  0  0  0
 17 20  1  0  0  0
 17 21  1  0  0  0
 18 22  1  0  0  0
 18 23  1  0  0  0
 24 25  1  0  0  0
 24 29  1  0  0  0
 24 30  1  0  0  0
 24 31  1  0  0  0
 25 26  1  0  0  0
 25 32  1  0  0  0
 25 33  1  0  0  0
 26 27  1  0  0  0
 26 34  1  0  0  0
 27 28  1  0  0  0
 27 35  1  0  0  0
 27 36  1  0  0  0
 28 29  1  0  0  0
 28 37  1  0  0  0
 28 38  1  0  0  0
 39 43  1  0  0  0
 40 41  1  0  0  0
 40 45  2  0  0  0
 40 46  1  0  0  0
 41 42  2  0  0  0
 41 47  1  0  0  0
 42 43  1  0  0  0
 42 48  1  0  0  0
 43 44  2  0  0  0
 44 45  1  0  0  0
 44 49  1  0  0  0
 45 50  1  0  0  0
M  END
> <s_m_entry_id>
832

> <s_m_Source_Path>
/projects/mai/users/kmzp800_harry/pmx_colab/docking_jobs/p38/glide-dock_SP_p38_mcs_docking_2

> <s_m_Source_File>
glide-dock_SP_p38_mcs_docking_2_pv.maegz

> <i_m_Source_File_Index>
16

> <s_pdb_PDB_TITLE>
MX MODEL

> <r_i_docking_score>
-7.25550443827799

> <r_i_glide_gscore>
-7.25550443827799

> <r_i_glide_emodel>
-42.8427930197477

$$$$
lig_p38a_2g
                    3D
 Schrodinger Suite 2021-4.
 46 49  0  0  1  0            999 V2000
   34.4645   35.1532   21.2111 C   0  0  0  0  0  0
   33.6612   39.0161   23.8728 C   0  0  0  0  0  0
   34.7186   37.9618   21.6465 C   0  0  0  0  0  0
   35.3192   37.3372   20.4736 C   0  0  0  0  0  0
   34.0298   37.1519   22.5710 C   0  0  0  0  0  0
   34.7947   39.3388   21.9266 C   0  0  0  0  0  0
   35.2016   36.0075   20.2787 C   0  0  0  0  0  0
   33.2100   34.9167   23.2947 C   0  0  0  0  0  0
   34.2772   39.8677   23.0551 N   0  0  0  0  0  0
   34.3278   33.9502   20.9891 O   0  0  0  0  0  0
   33.9425   35.7458   22.3214 N   0  0  0  0  0  0
   33.4890   37.7142   23.6708 N   0  0  0  0  0  0
   33.1865   39.5484   25.0507 N   0  0  0  0  0  0
   35.8591   37.9709   19.7862 H   0  0  0  0  0  0
   35.3033   40.0069   21.2521 H   0  0  0  0  0  0
   32.1405   34.9724   23.0978 H   0  0  0  0  0  0
   33.4960   33.8641   23.2818 H   0  0  0  0  0  0
   33.3806   35.2527   24.3165 H   0  0  0  0  0  0
   33.3954   40.5273   25.2122 H   0  0  0  0  0  0
   33.2748   38.2003   28.6234 C   0  0  0  0  0  0
   33.7671   38.9580   27.3790 C   0  0  0  0  0  0
   32.7793   38.7697   26.2175 C   0  0  0  0  0  0
   31.3743   39.1660   26.6862 C   0  0  0  0  0  0
   30.9991   38.3868   27.9578 C   0  0  0  0  0  0
   31.9653   38.6375   28.9746 O   0  0  0  0  0  0
   33.2722   37.1222   28.4473 H   0  0  0  0  0  0
   33.9450   38.3852   29.4633 H   0  0  0  0  0  0
   34.7616   38.6057   27.0951 H   0  0  0  0  0  0
   33.8662   40.0184   27.6186 H   0  0  0  0  0  0
   32.7505   37.7064   25.9766 H   0  0  0  0  0  0
   31.3551   40.2347   26.8868 H   0  0  0  0  0  0
   30.6440   38.9770   25.9016 H   0  0  0  0  0  0
   30.9325   37.3175   27.7532 H   0  0  0  0  0  0
   30.0219   38.7028   28.3233 H   0  0  0  0  0  0
   35.7426   35.3370   19.2161 O   0  0  0  0  0  0
   37.9176   36.5713   15.8900 C   0  0  0  0  0  0
   38.5518   36.4472   17.1409 C   0  0  0  0  0  0
   37.7928   36.2223   18.3041 C   0  0  0  0  0  0
   36.4171   35.9450   18.1939 C   0  0  0  0  0  0
   35.8067   35.9495   16.9299 C   0  0  0  0  0  0
   36.5323   36.3479   15.7942 C   0  0  0  0  0  0
   38.4936   36.8328   15.0139 H   0  0  0  0  0  0
   39.6111   36.6317   17.2348 H   0  0  0  0  0  0
   38.3948   36.2143   19.5145 F   0  0  0  0  0  0
   34.7737   35.6454   16.8378 H   0  0  0  0  0  0
   36.0343   36.4231   14.8410 H   0  0  0  0  0  0
  1  7  1  0  0  0
  1 10  2  0  0  0
  1 11  1  0  0  0
  2  9  1  0  0  0
  2 12  2  0  0  0
  2 13  1  0  0  0
  3  4  1  0  0  0
  3  5  2  0  0  0
  3  6  1  0  0  0
  4  7  2  0  0  0
  4 14  1  0  0  0
  5 11  1  0  0  0
  5 12  1  0  0  0
  6  9  2  0  0  0
  6 15  1  0  0  0
  7 35  1  0  0  0
  8 11  1  0  0  0
  8 16  1  0  0  0
  8 17  1  0  0  0
  8 18  1  0  0  0
 13 19  1  0  0  0
 13 22  1  0  0  0
 20 21  1  0  0  0
 20 25  1  0  0  0
 20 26  1  0  0  0
 20 27  1  0  0  0
 21 22  1  0  0  0
 21 28  1  0  0  0
 21 29  1  0  0  0
 22 23  1  0  0  0
 22 30  1  0  0  0
 23 24  1  0  0  0
 23 31  1  0  0  0
 23 32  1  0  0  0
 24 25  1  0  0  0
 24 33  1  0  0  0
 24 34  1  0  0  0
 35 39  1  0  0  0
 36 37  1  0  0  0
 36 41  2  0  0  0
 36 42  1  0  0  0
 37 38  2  0  0  0
 37 43  1  0  0  0
 38 39  1  0  0  0
 38 44  1  0  0  0
 39 40  2  0  0  0
 40 41  1  0  0  0
 40 45  1  0  0  0
 41 46  1  0  0  0
M  END
> <s_m_entry_id>
833

> <s_m_Source_Path>
/projects/mai/users/kmzp800_harry/pmx_colab/docking_jobs/p38/glide-dock_SP_p38_mcs_docking_2

> <s_m_Source_File>
glide-dock_SP_p38_mcs_docking_2_pv.maegz

> <i_m_Source_File_Index>
17

> <s_pdb_PDB_TITLE>
MX MODEL

> <r_i_docking_score>
-7.24246688997063

> <r_i_glide_gscore>
-7.24246688997063

> <r_i_glide_emodel>
-48.5286661038528

$$$$
lig_p38a_2bb
                    3D
 Schrodinger Suite 2021-4.
 44 46  0  0  1  0            999 V2000
   34.5310   35.0903   21.3192 C   0  0  0  0  0  0
   34.0977   38.9856   24.0154 C   0  0  0  0  0  0
   34.8664   37.8986   21.6859 C   0  0  0  0  0  0
   35.2395   37.2649   20.4261 C   0  0  0  0  0  0
   34.3704   37.0931   22.7310 C   0  0  0  0  0  0
   34.9419   39.2842   21.9198 C   0  0  0  0  0  0
   35.0860   35.9340   20.2593 C   0  0  0  0  0  0
   33.8057   34.8631   23.6498 C   0  0  0  0  0  0
   34.5521   39.8324   23.0912 N   0  0  0  0  0  0
   34.3056   33.8985   21.1186 O   0  0  0  0  0  0
   34.2696   35.6827   22.5183 N   0  0  0  0  0  0
   33.9886   37.6654   23.8920 N   0  0  0  0  0  0
   33.6921   39.5493   25.2048 N   0  0  0  0  0  0
   35.6134   37.8996   19.6353 H   0  0  0  0  0  0
   35.3139   39.9493   21.1572 H   0  0  0  0  0  0
   33.8936   33.7846   23.4999 H   0  0  0  0  0  0
   34.3846   35.0961   24.5456 H   0  0  0  0  0  0
   32.7575   35.0820   23.8613 H   0  0  0  0  0  0
   33.7623   40.5576   25.2842 H   0  0  0  0  0  0
   33.2466   38.8058   26.3745 C   0  0  0  0  0  0
   33.6935   37.8107   26.4011 H   0  0  0  0  0  0
   32.1692   38.6617   26.2849 H   0  0  0  0  0  0
   33.5608   39.5448   27.6842 C   0  0  0  0  0  0
   33.0131   39.0741   28.5006 H   0  0  0  0  0  0
   33.2428   40.5877   27.6544 H   0  0  0  0  0  0
   35.3530   39.4563   28.1343 S   0  0  0  0  0  0
   36.0948   38.7492   27.0798 O   0  0  0  0  0  0
   35.8514   41.2219   28.0987 C   0  0  0  0  0  0
   35.4541   39.0001   29.5279 O   0  0  0  0  0  0
   36.8917   41.3032   28.4080 H   0  0  0  0  0  0
   35.2224   41.7918   28.7810 H   0  0  0  0  0  0
   35.7446   41.6124   27.0891 H   0  0  0  0  0  0
   35.3480   35.2830   19.0801 O   0  0  0  0  0  0
   37.9101   36.6020   16.0505 C   0  0  0  0  0  0
   38.4464   36.3493   17.3312 C   0  0  0  0  0  0
   37.5836   36.0284   18.4004 C   0  0  0  0  0  0
   36.2160   35.7782   18.1432 C   0  0  0  0  0  0
   35.7516   35.8526   16.8241 C   0  0  0  0  0  0
   36.5594   36.3481   15.7948 C   0  0  0  0  0  0
   38.6602   37.1493   15.0768 F   0  0  0  0  0  0
   39.4909   36.5486   17.5209 H   0  0  0  0  0  0
   38.0763   35.9492   19.6555 F   0  0  0  0  0  0
   34.7304   35.5654   16.6112 H   0  0  0  0  0  0
   36.1488   36.5230   14.8125 H   0  0  0  0  0  0
  1  7  1  0  0  0
  1 10  2  0  0  0
  1 11  1  0  0  0
  2  9  1  0  0  0
  2 12  2  0  0  0
  2 13  1  0  0  0
  3  4  1  0  0  0
  3  5  2  0  0  0
  3  6  1  0  0  0
  4  7  2  0  0  0
  4 14  1  0  0  0
  5 11  1  0  0  0
  5 12  1  0  0  0
  6  9  2  0  0  0
  6 15  1  0  0  0
  7 33  1  0  0  0
  8 11  1  0  0  0
  8 16  1  0  0  0
  8 17  1  0  0  0
  8 18  1  0  0  0
 13 19  1  0  0  0
 13 20  1  0  0  0
 20 21  1  0  0  0
 20 22  1  0  0  0
 20 23  1  0  0  0
 23 24  1  0  0  0
 23 25  1  0  0  0
 23 26  1  0  0  0
 26 27  2  0  0  0
 26 28  1  0  0  0
 26 29  2  0  0  0
 28 30  1  0  0  0
 28 31  1  0  0  0
 28 32  1  0  0  0
 33 37  1  0  0  0
 34 35  1  0  0  0
 34 39  2  0  0  0
 34 40  1  0  0  0
 35 36  2  0  0  0
 35 41  1  0  0  0
 36 37  1  0  0  0
 36 42  1  0  0  0
 37 38  2  0  0  0
 38 39  1  0  0  0
 38 43  1  0  0  0
 39 44  1  0  0  0
M  END
> <s_m_entry_id>
834

> <s_m_Source_Path>
/projects/mai/users/kmzp800_harry/pmx_colab/docking_jobs/p38/glide-dock_SP_p38_mcs_docking_2

> <s_m_Source_File>
glide-dock_SP_p38_mcs_docking_2_pv.maegz

> <i_m_Source_File_Index>
18

> <s_pdb_PDB_TITLE>
MX MODEL

> <r_i_docking_score>
-7.23401598598557

> <r_i_glide_gscore>
-7.23401598598557

> <r_i_glide_emodel>
-53.3214905781069

$$$$
lig_p38a_2l
                    3D
 Schrodinger Suite 2021-4.
 49 52  0  0  1  0            999 V2000
   34.5522   35.0551   21.1680 C   0  0  0  0  0  0
   34.0677   38.9810   23.8171 C   0  0  0  0  0  0
   34.7350   37.8854   21.4632 C   0  0  0  0  0  0
   35.0667   37.2475   20.1953 C   0  0  0  0  0  0
   34.3732   37.0735   22.5578 C   0  0  0  0  0  0
   34.7316   39.2792   21.6602 C   0  0  0  0  0  0
   34.9894   35.9067   20.0646 C   0  0  0  0  0  0
   34.4033   39.8305   22.8480 N   0  0  0  0  0  0
   34.3884   33.8482   20.9998 O   0  0  0  0  0  0
   34.3632   35.6504   22.3803 N   0  0  0  0  0  0
   34.0393   37.6533   23.7286 N   0  0  0  0  0  0
   33.7282   39.5500   25.0254 N   0  0  0  0  0  0
   35.3582   37.8827   19.3715 H   0  0  0  0  0  0
   34.9931   39.9492   20.8568 H   0  0  0  0  0  0
   33.7679   40.5608   25.0889 H   0  0  0  0  0  0
   34.1708   34.7863   23.5629 C   0  0  0  0  0  0
   34.8525   33.9343   23.5158 H   0  0  0  0  0  0
   34.4585   35.3019   24.4794 H   0  0  0  0  0  0
   32.7373   34.2711   23.7044 C   0  0  0  0  0  0
   32.6403   33.6393   24.5869 H   0  0  0  0  0  0
   32.0328   35.0961   23.8103 H   0  0  0  0  0  0
   32.4310   33.6787   22.8428 H   0  0  0  0  0  0
   33.5830   38.5141   28.6859 C   0  0  0  0  0  0
   34.1221   39.2165   27.4316 C   0  0  0  0  0  0
   33.2779   38.8322   26.2117 C   0  0  0  0  0  0
   31.7970   39.1145   26.5041 C   0  0  0  0  0  0
   31.3765   38.4307   27.8150 C   0  0  0  0  0  0
   32.2201   38.8747   28.8770 O   0  0  0  0  0  0
   33.6833   37.4315   28.6053 H   0  0  0  0  0  0
   34.1555   38.8229   29.5603 H   0  0  0  0  0  0
   35.1653   38.9439   27.2708 H   0  0  0  0  0  0
   34.0967   40.2974   27.5812 H   0  0  0  0  0  0
   33.3888   37.7575   26.0687 H   0  0  0  0  0  0
   31.6312   40.1887   26.5868 H   0  0  0  0  0  0
   31.1719   38.7621   25.6837 H   0  0  0  0  0  0
   31.4308   37.3454   27.7213 H   0  0  0  0  0  0
   30.3418   38.6733   28.0559 H   0  0  0  0  0  0
   35.2374   35.2509   18.8887 O   0  0  0  0  0  0
   37.8404   36.6530   15.9474 C   0  0  0  0  0  0
   38.3761   36.3493   17.2202 C   0  0  0  0  0  0
   37.5026   35.9905   18.2670 C   0  0  0  0  0  0
   36.1452   35.7161   17.9759 C   0  0  0  0  0  0
   35.7036   35.7979   16.6516 C   0  0  0  0  0  0
   36.5100   36.3489   15.6576 C   0  0  0  0  0  0
   38.5553   37.2944   15.0076 F   0  0  0  0  0  0
   39.4085   36.5796   17.4394 H   0  0  0  0  0  0
   37.9659   35.9054   19.5350 F   0  0  0  0  0  0
   34.6771   35.5501   16.4225 H   0  0  0  0  0  0
   36.0981   36.5753   14.6892 H   0  0  0  0  0  0
  1  7  1  0  0  0
  1  9  2  0  0  0
  1 10  1  0  0  0
  2  8  1  0  0  0
  2 11  2  0  0  0
  2 12  1  0  0  0
  3  4  1  0  0  0
  3  5  2  0  0  0
  3  6  1  0  0  0
  4  7  2  0  0  0
  4 13  1  0  0  0
  5 10  1  0  0  0
  5 11  1  0  0  0
  6  8  2  0  0  0
  6 14  1  0  0  0
  7 38  1  0  0  0
 10 16  1  0  0  0
 12 15  1  0  0  0
 12 25  1  0  0  0
 16 17  1  0  0  0
 16 18  1  0  0  0
 16 19  1  0  0  0
 19 20  1  0  0  0
 19 21  1  0  0  0
 19 22  1  0  0  0
 23 24  1  0  0  0
 23 28  1  0  0  0
 23 29  1  0  0  0
 23 30  1  0  0  0
 24 25  1  0  0  0
 24 31  1  0  0  0
 24 32  1  0  0  0
 25 26  1  0  0  0
 25 33  1  0  0  0
 26 27  1  0  0  0
 26 34  1  0  0  0
 26 35  1  0  0  0
 27 28  1  0  0  0
 27 36  1  0  0  0
 27 37  1  0  0  0
 38 42  1  0  0  0
 39 40  1  0  0  0
 39 44  2  0  0  0
 39 45  1  0  0  0
 40 41  2  0  0  0
 40 46  1  0  0  0
 41 42  1  0  0  0
 41 47  1  0  0  0
 42 43  2  0  0  0
 43 44  1  0  0  0
 43 48  1  0  0  0
 44 49  1  0  0  0
M  END
> <s_m_entry_id>
835

> <s_m_Source_Path>
/projects/mai/users/kmzp800_harry/pmx_colab/docking_jobs/p38/glide-dock_SP_p38_mcs_docking_2

> <s_m_Source_File>
glide-dock_SP_p38_mcs_docking_2_pv.maegz

> <i_m_Source_File_Index>
19

> <s_pdb_PDB_TITLE>
MX MODEL

> <r_i_docking_score>
-7.2217863364715

> <r_i_glide_gscore>
-7.2217863364715

> <r_i_glide_emodel>
-36.6179407138884

$$$$
lig_p38a_2aa
                    3D
 Schrodinger Suite 2021-4.
 43 45  0  0  1  0            999 V2000
   34.3231   35.0798   21.1736 C   0  0  0  0  0  0
   34.0664   38.9877   23.8863 C   0  0  0  0  0  0
   34.7585   37.8895   21.5370 C   0  0  0  0  0  0
   35.1468   37.2231   20.2947 C   0  0  0  0  0  0
   34.1774   37.1081   22.5587 C   0  0  0  0  0  0
   34.9315   39.2666   21.7961 C   0  0  0  0  0  0
   34.9639   35.8917   20.1358 C   0  0  0  0  0  0
   33.2401   34.9643   23.3702 C   0  0  0  0  0  0
   34.5825   39.8143   22.9805 N   0  0  0  0  0  0
   34.1462   33.8727   21.0055 O   0  0  0  0  0  0
   33.9390   35.7172   22.3158 N   0  0  0  0  0  0
   33.8522   37.6831   23.7354 N   0  0  0  0  0  0
   33.7373   39.5495   25.1004 N   0  0  0  0  0  0
   35.5786   37.8357   19.5169 H   0  0  0  0  0  0
   35.3604   39.9410   21.0670 H   0  0  0  0  0  0
   32.9932   33.9337   23.1090 H   0  0  0  0  0  0
   33.8541   34.9245   24.2707 H   0  0  0  0  0  0
   32.3023   35.4577   23.6327 H   0  0  0  0  0  0
   33.8857   40.5510   25.1726 H   0  0  0  0  0  0
   32.7185   39.0032   25.9881 C   0  0  0  0  0  0
   32.9767   39.5092   27.4190 C   0  0  0  0  0  0
   31.3084   39.4100   25.5010 C   0  0  0  0  0  0
   32.7950   37.9144   26.0046 H   0  0  0  0  0  0
   32.1402   38.8483   28.3452 O   0  0  0  0  0  0
   32.8099   40.5851   27.4886 H   0  0  0  0  0  0
   34.0123   39.3246   27.7062 H   0  0  0  0  0  0
   30.9523   38.7338   24.3116 O   0  0  0  0  0  0
   30.5626   39.1471   26.2519 H   0  0  0  0  0  0
   31.2374   40.4861   25.3462 H   0  0  0  0  0  0
   32.3572   37.9301   28.3519 H   0  0  0  0  0  0
   31.0904   37.8072   24.4391 H   0  0  0  0  0  0
   35.2767   35.2025   18.9889 O   0  0  0  0  0  0
   37.8191   36.5727   15.9664 C   0  0  0  0  0  0
   38.3528   36.3494   17.2550 C   0  0  0  0  0  0
   37.5002   35.9917   18.3187 C   0  0  0  0  0  0
   36.1476   35.6822   18.0476 C   0  0  0  0  0  0
   35.6833   35.7438   16.7250 C   0  0  0  0  0  0
   36.4831   36.2600   15.6956 C   0  0  0  0  0  0
   38.5548   37.1504   14.9994 F   0  0  0  0  0  0
   39.3833   36.5985   17.4589 H   0  0  0  0  0  0
   37.9832   35.9481   19.5806 F   0  0  0  0  0  0
   34.6568   35.4799   16.5182 H   0  0  0  0  0  0
   36.0840   36.4250   14.6996 H   0  0  0  0  0  0
  1  7  1  0  0  0
  1 10  2  0  0  0
  1 11  1  0  0  0
  2  9  1  0  0  0
  2 12  2  0  0  0
  2 13  1  0  0  0
  3  4  1  0  0  0
  3  5  2  0  0  0
  3  6  1  0  0  0
  4  7  2  0  0  0
  4 14  1  0  0  0
  5 11  1  0  0  0
  5 12  1  0  0  0
  6  9  2  0  0  0
  6 15  1  0  0  0
  7 32  1  0  0  0
  8 11  1  0  0  0
  8 16  1  0  0  0
  8 17  1  0  0  0
  8 18  1  0  0  0
 13 19  1  0  0  0
 13 20  1  0  0  0
 20 21  1  0  0  0
 20 22  1  0  0  0
 20 23  1  0  0  0
 21 24  1  0  0  0
 21 25  1  0  0  0
 21 26  1  0  0  0
 22 27  1  0  0  0
 22 28  1  0  0  0
 22 29  1  0  0  0
 24 30  1  0  0  0
 27 31  1  0  0  0
 32 36  1  0  0  0
 33 34  1  0  0  0
 33 38  2  0  0  0
 33 39  1  0  0  0
 34 35  2  0  0  0
 34 40  1  0  0  0
 35 36  1  0  0  0
 35 41  1  0  0  0
 36 37  2  0  0  0
 37 38  1  0  0  0
 37 42  1  0  0  0
 38 43  1  0  0  0
M  END
> <s_m_entry_id>
836

> <s_m_Source_Path>
/projects/mai/users/kmzp800_harry/pmx_colab/docking_jobs/p38/glide-dock_SP_p38_mcs_docking_2

> <s_m_Source_File>
glide-dock_SP_p38_mcs_docking_2_pv.maegz

> <i_m_Source_File_Index>
20

> <s_pdb_PDB_TITLE>
MX MODEL

> <r_i_docking_score>
-7.21694742909094

> <r_i_glide_gscore>
-7.21694742909094

> <r_i_glide_emodel>
-44.2890454355795

$$$$
lig_p38a_2o
                    3D
 Schrodinger Suite 2021-4.
 55 58  0  0  1  0            999 V2000
   34.5549   35.0780   21.1912 C   0  0  0  0  0  0
   34.2380   38.9821   23.9128 C   0  0  0  0  0  0
   34.8033   37.8964   21.5252 C   0  0  0  0  0  0
   35.0906   37.2729   20.2399 C   0  0  0  0  0  0
   34.4622   37.0784   22.6213 C   0  0  0  0  0  0
   34.8344   39.2860   21.7377 C   0  0  0  0  0  0
   34.9890   35.9363   20.0903 C   0  0  0  0  0  0
   34.5515   39.8345   22.9384 N   0  0  0  0  0  0
   34.3746   33.8751   21.0111 O   0  0  0  0  0  0
   34.3992   35.6574   22.4176 N   0  0  0  0  0  0
   34.2017   37.6543   23.8145 N   0  0  0  0  0  0
   33.9351   39.5492   25.1343 N   0  0  0  0  0  0
   35.3826   37.9151   19.4214 H   0  0  0  0  0  0
   35.0884   39.9494   20.9289 H   0  0  0  0  0  0
   33.9615   40.5613   25.1934 H   0  0  0  0  0  0
   34.2505   34.7696   23.5913 C   0  0  0  0  0  0
   34.9997   33.9786   23.5177 H   0  0  0  0  0  0
   34.5102   35.2772   24.5203 H   0  0  0  0  0  0
   32.8702   34.1082   23.7367 C   0  0  0  0  0  0
   32.4810   33.7345   22.7900 H   0  0  0  0  0  0
   32.9460   33.2555   24.4124 H   0  0  0  0  0  0
   31.6403   35.2680   24.4641 S   0  0  0  0  0  0
   32.0919   35.6099   25.8200 O   0  0  0  0  0  0
   31.3704   36.3353   23.4905 O   0  0  0  0  0  0
   30.1462   34.2182   24.6038 C   0  0  0  0  0  0
   29.3546   34.7921   25.0881 H   0  0  0  0  0  0
   29.8109   33.9248   23.6092 H   0  0  0  0  0  0
   30.3681   33.3370   25.2034 H   0  0  0  0  0  0
   33.3380   38.4727   28.7365 C   0  0  0  0  0  0
   34.0282   39.2002   27.5734 C   0  0  0  0  0  0
   33.3314   38.8413   26.2576 C   0  0  0  0  0  0
   31.8305   39.1495   26.3767 C   0  0  0  0  0  0
   31.2382   38.4646   27.6217 C   0  0  0  0  0  0
   31.9645   38.8487   28.7852 O   0  0  0  0  0  0
   33.4308   37.3902   28.6318 H   0  0  0  0  0  0
   33.8097   38.7434   29.6810 H   0  0  0  0  0  0
   35.0820   38.9221   27.5325 H   0  0  0  0  0  0
   33.9894   40.2783   27.7390 H   0  0  0  0  0  0
   33.4459   37.7662   26.1239 H   0  0  0  0  0  0
   31.6760   40.2271   26.4494 H   0  0  0  0  0  0
   31.3023   38.8151   25.4827 H   0  0  0  0  0  0
   31.2546   37.3798   27.5195 H   0  0  0  0  0  0
   30.1935   38.7487   27.7483 H   0  0  0  0  0  0
   35.2207   35.2954   18.8999 O   0  0  0  0  0  0
   37.9360   36.6069   15.9948 C   0  0  0  0  0  0
   38.4152   36.3493   17.2946 C   0  0  0  0  0  0
   37.5109   36.0054   18.3199 C   0  0  0  0  0  0
   36.1523   35.7507   18.0026 C   0  0  0  0  0  0
   35.7518   35.8358   16.6633 C   0  0  0  0  0  0
   36.5997   36.3491   15.6789 C   0  0  0  0  0  0
   38.7320   37.1493   15.0576 F   0  0  0  0  0  0
   39.4497   36.5504   17.5317 H   0  0  0  0  0  0
   37.9660   35.9206   19.5881 F   0  0  0  0  0  0
   34.7369   35.5666   16.4041 H   0  0  0  0  0  0
   36.2241   36.5460   14.6893 H   0  0  0  0  0  0
  1  7  1  0  0  0
  1  9  2  0  0  0
  1 10  1  0  0  0
  2  8  1  0  0  0
  2 11  2  0  0  0
  2 12  1  0  0  0
  3  4  1  0  0  0
  3  5  2  0  0  0
  3  6  1  0  0  0
  4  7  2  0  0  0
  4 13  1  0  0  0
  5 10  1  0  0  0
  5 11  1  0  0  0
  6  8  2  0  0  0
  6 14  1  0  0  0
  7 44  1  0  0  0
 10 16  1  0  0  0
 12 15  1  0  0  0
 12 31  1  0  0  0
 16 17  1  0  0  0
 16 18  1  0  0  0
 16 19  1  0  0  0
 19 20  1  0  0  0
 19 21  1  0  0  0
 19 22  1  0  0  0
 22 23  2  0  0  0
 22 24  2  0  0  0
 22 25  1  0  0  0
 25 26  1  0  0  0
 25 27  1  0  0  0
 25 28  1  0  0  0
 29 30  1  0  0  0
 29 34  1  0  0  0
 29 35  1  0  0  0
 29 36  1  0  0  0
 30 31  1  0  0  0
 30 37  1  0  0  0
 30 38  1  0  0  0
 31 32  1  0  0  0
 31 39  1  0  0  0
 32 33  1  0  0  0
 32 40  1  0  0  0
 32 41  1  0  0  0
 33 34  1  0  0  0
 33 42  1  0  0  0
 33 43  1  0  0  0
 44 48  1  0  0  0
 45 46  1  0  0  0
 45 50  2  0  0  0
 45 51  1  0  0  0
 46 47  2  0  0  0
 46 52  1  0  0  0
 47 48  1  0  0  0
 47 53  1  0  0  0
 48 49  2  0  0  0
 49 50  1  0  0  0
 49 54  1  0  0  0
 50 55  1  0  0  0
M  END
> <s_m_entry_id>
837

> <s_m_Source_Path>
/projects/mai/users/kmzp800_harry/pmx_colab/docking_jobs/p38/glide-dock_SP_p38_mcs_docking_2

> <s_m_Source_File>
glide-dock_SP_p38_mcs_docking_2_pv.maegz

> <i_m_Source_File_Index>
21

> <s_pdb_PDB_TITLE>
MX MODEL

> <r_i_docking_score>
-7.21599912178052

> <r_i_glide_gscore>
-7.21599912178052

> <r_i_glide_emodel>
-59.7884828733768

$$$$
lig_p38a_3fmh
                    3D
 Schrodinger Suite 2021-4.
 46 49  0  0  1  0            999 V2000
   34.9643   35.7575   20.2802 C   0  0  0  0  0  0
   34.3036   34.9792   21.3314 C   0  0  0  0  0  0
   34.1206   33.7699   21.1950 O   0  0  0  0  0  0
   33.9129   35.6491   22.4529 N   0  0  0  0  0  0
   33.2385   34.9172   23.5385 C   0  0  0  0  0  0
   34.1477   37.0463   22.6540 C   0  0  0  0  0  0
   33.8213   37.6603   23.8099 N   0  0  0  0  0  0
   35.1491   37.0918   20.4014 C   0  0  0  0  0  0
   34.7488   37.7891   21.6177 C   0  0  0  0  0  0
   34.9521   39.1654   21.8418 C   0  0  0  0  0  0
   34.6161   39.7521   23.0108 N   0  0  0  0  0  0
   34.0791   38.9584   23.9342 C   0  0  0  0  0  0
   33.7899   39.5494   25.1429 N   0  0  0  0  0  0
   32.7656   39.0660   26.0588 C   0  0  2  0  0  0
   31.3777   39.5232   25.5685 C   0  0  0  0  0  0
   33.0841   39.5440   27.4932 C   0  0  0  0  0  0
   32.2147   39.0040   28.5288 N   0  0  3  0  0  0
   31.4932   37.8727   28.3961 N   0  0  0  0  0  0
   30.9519   37.8056   29.6003 C   0  0  0  0  0  0
   31.3522   38.8000   30.4431 N   0  0  0  0  0  0
   32.1546   39.5501   29.7602 N   0  0  0  0  0  0
   32.8864   33.9211   23.2663 H   0  0  0  0  0  0
   33.9155   34.8061   24.3862 H   0  0  0  0  0  0
   32.3601   35.4650   23.8814 H   0  0  0  0  0  0
   35.6075   37.6819   19.6211 H   0  0  0  0  0  0
   35.4079   39.7940   21.0914 H   0  0  0  0  0  0
   33.9878   40.5423   25.2028 H   0  0  0  0  0  0
   32.7898   37.9755   26.0619 H   0  0  0  0  0  0
   30.5747   39.1497   26.2032 H   0  0  0  0  0  0
   31.3086   40.6115   25.5480 H   0  0  0  0  0  0
   31.1766   39.1618   24.5598 H   0  0  0  0  0  0
   33.0308   40.6329   27.5410 H   0  0  0  0  0  0
   34.1064   39.2702   27.7557 H   0  0  0  0  0  0
   30.2686   37.0189   29.8846 H   0  0  0  0  0  0
   35.3257   35.0300   19.1727 O   0  0  0  0  0  0
   37.6121   36.5131   15.9974 C   0  0  0  0  0  0
   38.2200   36.3493   17.2577 C   0  0  0  0  0  0
   37.4415   35.9565   18.3631 C   0  0  0  0  0  0
   36.0971   35.5524   18.1697 C   0  0  0  0  0  0
   35.5480   35.5517   16.8775 C   0  0  0  0  0  0
   36.2769   36.1086   15.8123 C   0  0  0  0  0  0
   38.2731   37.1486   15.0020 F   0  0  0  0  0  0
   39.2429   36.6655   17.4084 H   0  0  0  0  0  0
   37.9948   35.9489   19.5970 F   0  0  0  0  0  0
   34.5292   35.2244   16.7235 H   0  0  0  0  0  0
   35.7948   36.2476   14.8579 H   0  0  0  0  0  0
  1  2  1  0  0  0
  1  8  2  0  0  0
  1 35  1  0  0  0
  2  3  2  0  0  0
  2  4  1  0  0  0
  4  5  1  0  0  0
  4  6  1  0  0  0
  5 22  1  0  0  0
  5 23  1  0  0  0
  5 24  1  0  0  0
  6  7  1  0  0  0
  6  9  2  0  0  0
  7 12  2  0  0  0
  8  9  1  0  0  0
  8 25  1  0  0  0
  9 10  1  0  0  0
 10 11  2  0  0  0
 10 26  1  0  0  0
 11 12  1  0  0  0
 12 13  1  0  0  0
 13 14  1  0  0  0
 13 27  1  0  0  0
 14 15  1  0  0  0
 14 16  1  0  0  0
 14 28  1  0  0  0
 15 29  1  0  0  0
 15 30  1  0  0  0
 15 31  1  0  0  0
 16 17  1  0  0  0
 16 32  1  0  0  0
 16 33  1  0  0  0
 17 18  1  0  0  0
 17 21  1  0  0  0
 18 19  2  0  0  0
 19 20  1  0  0  0
 19 34  1  0  0  0
 20 21  2  0  0  0
 35 39  1  0  0  0
 36 37  1  0  0  0
 36 41  2  0  0  0
 36 42  1  0  0  0
 37 38  2  0  0  0
 37 43  1  0  0  0
 38 39  1  0  0  0
 38 44  1  0  0  0
 39 40  2  0  0  0
 40 41  1  0  0  0
 40 45  1  0  0  0
 41 46  1  0  0  0
M  END
> <s_m_entry_id>
838

> <s_m_Source_Path>
/projects/mai/users/kmzp800_harry/pmx_colab/docking_jobs/p38/glide-dock_SP_p38_mcs_docking_2

> <s_m_Source_File>
glide-dock_SP_p38_mcs_docking_2_pv.maegz

> <i_m_Source_File_Index>
22

> <s_pdb_PDB_TITLE>
MX MODEL

> <r_i_docking_score>
-7.18811180309842

> <r_i_glide_gscore>
-7.18811180309842

> <r_i_glide_emodel>
-42.5785449947813

$$$$
lig_p38a_2gg
                    3D
 Schrodinger Suite 2021-4.
 48 51  0  0  1  0            999 V2000
   34.3194   35.0773   20.9343 C   0  0  0  0  0  0
   34.0010   38.9414   23.7249 C   0  0  0  0  0  0
   34.7477   37.8754   21.3680 C   0  0  0  0  0  0
   35.1524   37.2385   20.1151 C   0  0  0  0  0  0
   34.1204   37.0877   22.3503 C   0  0  0  0  0  0
   34.9516   39.2376   21.6728 C   0  0  0  0  0  0
   34.9547   35.9156   19.9131 C   0  0  0  0  0  0
   33.2798   34.8991   23.1469 C   0  0  0  0  0  0
   34.5707   39.7691   22.8550 N   0  0  0  0  0  0
   34.1576   33.8712   20.7444 O   0  0  0  0  0  0
   33.9239   35.6934   22.0878 N   0  0  0  0  0  0
   33.7464   37.6502   23.5197 N   0  0  0  0  0  0
   33.7095   39.4732   24.9681 N   0  0  0  0  0  0
   35.5970   37.8648   19.3557 H   0  0  0  0  0  0
   35.4255   39.9099   20.9707 H   0  0  0  0  0  0
   32.3117   35.3275   23.4088 H   0  0  0  0  0  0
   33.0996   33.8516   22.8973 H   0  0  0  0  0  0
   33.8986   34.9082   24.0429 H   0  0  0  0  0  0
   33.8922   40.4626   25.0854 H   0  0  0  0  0  0
   34.8882   37.7180   27.2354 C   0  0  0  0  0  0
   33.5082   37.5351   26.5874 C   0  0  0  0  0  0
   32.9041   38.8437   26.0198 C   0  0  0  0  0  0
   32.6362   39.8566   27.1488 C   0  0  0  0  0  0
   33.9171   40.2989   27.8835 C   0  0  0  0  0  0
   35.2760   36.7685   27.6055 H   0  0  0  0  0  0
   35.6051   38.1169   26.5235 H   0  0  0  0  0  0
   32.8261   37.1318   27.3368 H   0  0  0  0  0  0
   33.5707   36.7549   25.8318 H   0  0  0  0  0  0
   31.9443   38.5922   25.5679 H   0  0  0  0  0  0
   32.1282   40.7316   26.7378 H   0  0  0  0  0  0
   31.9439   39.4235   27.8712 H   0  0  0  0  0  0
   33.6973   41.0283   28.6627 H   0  0  0  0  0  0
   34.6262   40.7507   27.1961 H   0  0  0  0  0  0
   34.7745   38.8704   28.6594 S   0  0  0  0  0  0
   36.1344   39.2780   29.0440 O   0  0  0  0  0  0
   33.8608   38.2769   29.6461 O   0  0  0  0  0  0
   35.2544   35.2674   18.7386 O   0  0  0  0  0  0
   37.8479   36.7116   15.8094 C   0  0  0  0  0  0
   38.3877   36.3571   17.0708 C   0  0  0  0  0  0
   37.5095   36.0191   18.1206 C   0  0  0  0  0  0
   36.1526   35.7589   17.8237 C   0  0  0  0  0  0
   35.7213   35.8547   16.4877 C   0  0  0  0  0  0
   36.5200   36.4346   15.4964 C   0  0  0  0  0  0
   38.5568   37.3855   14.8935 F   0  0  0  0  0  0
   39.4234   36.5711   17.2877 H   0  0  0  0  0  0
   37.9688   35.9493   19.3924 F   0  0  0  0  0  0
   34.6982   35.5871   16.2512 H   0  0  0  0  0  0
   36.1157   36.7493   14.5474 H   0  0  0  0  0  0
  1  7  1  0  0  0
  1 10  2  0  0  0
  1 11  1  0  0  0
  2  9  1  0  0  0
  2 12  2  0  0  0
  2 13  1  0  0  0
  3  4  1  0  0  0
  3  5  2  0  0  0
  3  6  1  0  0  0
  4  7  2  0  0  0
  4 14  1  0  0  0
  5 11  1  0  0  0
  5 12  1  0  0  0
  6  9  2  0  0  0
  6 15  1  0  0  0
  7 37  1  0  0  0
  8 11  1  0  0  0
  8 16  1  0  0  0
  8 17  1  0  0  0
  8 18  1  0  0  0
 13 19  1  0  0  0
 13 22  1  0  0  0
 20 21  1  0  0  0
 20 25  1  0  0  0
 20 26  1  0  0  0
 20 34  1  0  0  0
 21 22  1  0  0  0
 21 27  1  0  0  0
 21 28  1  0  0  0
 22 23  1  0  0  0
 22 29  1  0  0  0
 23 24  1  0  0  0
 23 30  1  0  0  0
 23 31  1  0  0  0
 24 32  1  0  0  0
 24 33  1  0  0  0
 24 34  1  0  0  0
 34 35  2  0  0  0
 34 36  2  0  0  0
 37 41  1  0  0  0
 38 39  1  0  0  0
 38 43  2  0  0  0
 38 44  1  0  0  0
 39 40  2  0  0  0
 39 45  1  0  0  0
 40 41  1  0  0  0
 40 46  1  0  0  0
 41 42  2  0  0  0
 42 43  1  0  0  0
 42 47  1  0  0  0
 43 48  1  0  0  0
M  END
> <s_m_entry_id>
839

> <s_m_Source_Path>
/projects/mai/users/kmzp800_harry/pmx_colab/docking_jobs/p38/glide-dock_SP_p38_mcs_docking_2

> <s_m_Source_File>
glide-dock_SP_p38_mcs_docking_2_pv.maegz

> <i_m_Source_File_Index>
23

> <s_pdb_PDB_TITLE>
MX MODEL

> <r_i_docking_score>
-7.1873044431992

> <r_i_glide_gscore>
-7.1873044431992

> <r_i_glide_emodel>
-42.3041826009903

$$$$
lig_p38a_3fly
                    3D
 Schrodinger Suite 2021-4.
 41 43  0  0  1  0            999 V2000
   34.9512   39.1769   21.9670 C   0  0  0  0  0  0
   34.1940   37.0382   22.7744 C   0  0  0  0  0  0
   34.5524   39.7617   23.1168 N   0  0  0  0  0  0
   34.7926   37.7943   21.7456 C   0  0  0  0  0  0
   35.2030   37.1097   20.5251 C   0  0  0  0  0  0
   35.0031   35.7800   20.3838 C   0  0  0  0  0  0
   34.3421   34.9899   21.4256 C   0  0  0  0  0  0
   34.0084   38.9580   24.0310 C   0  0  0  0  0  0
   34.1072   33.7943   21.2518 O   0  0  0  0  0  0
   34.0032   35.6342   22.5777 N   0  0  0  0  0  0
   33.3742   34.8800   23.6758 C   0  0  0  0  0  0
   33.8114   37.6487   23.9139 N   0  0  0  0  0  0
   33.6230   39.5494   25.2140 N   0  0  0  0  0  0
   35.3982   39.8174   21.2214 H   0  0  0  0  0  0
   35.6665   37.7067   19.7532 H   0  0  0  0  0  0
   33.3960   33.7958   23.5574 H   0  0  0  0  0  0
   33.8777   35.0915   24.6199 H   0  0  0  0  0  0
   32.3304   35.1781   23.7798 H   0  0  0  0  0  0
   33.7677   40.5509   25.2902 H   0  0  0  0  0  0
   32.7332   38.9508   26.2001 C   0  0  0  0  0  0
   32.8459   39.7034   27.5327 C   0  0  0  0  0  0
   31.2808   38.9460   25.6970 C   0  0  0  0  0  0
   33.0478   37.9204   26.3713 H   0  0  0  0  0  0
   32.2049   39.2554   28.2925 H   0  0  0  0  0  0
   32.5526   40.7486   27.4283 H   0  0  0  0  0  0
   33.8680   39.6824   27.9116 H   0  0  0  0  0  0
   30.6072   38.5159   26.4392 H   0  0  0  0  0  0
   30.9377   39.9582   25.4829 H   0  0  0  0  0  0
   31.1750   38.3593   24.7841 H   0  0  0  0  0  0
   35.3459   35.0654   19.2635 O   0  0  0  0  0  0
   37.5766   36.4695   16.0222 C   0  0  0  0  0  0
   38.2028   36.3493   17.2775 C   0  0  0  0  0  0
   37.4426   35.9806   18.4032 C   0  0  0  0  0  0
   36.0892   35.5949   18.2441 C   0  0  0  0  0  0
   35.5211   35.5494   16.9615 C   0  0  0  0  0  0
   36.2406   36.0567   15.8675 C   0  0  0  0  0  0
   38.2238   37.0670   14.9960 F   0  0  0  0  0  0
   39.2316   36.6577   17.4012 H   0  0  0  0  0  0
   38.0275   35.9495   19.6215 F   0  0  0  0  0  0
   34.5015   35.2139   16.8326 H   0  0  0  0  0  0
   35.7524   36.1501   14.9117 H   0  0  0  0  0  0
  1  3  1  0  0  0
  1  4  2  0  0  0
  1 14  1  0  0  0
  2  4  1  0  0  0
  2 10  1  0  0  0
  2 12  2  0  0  0
  3  8  2  0  0  0
  4  5  1  0  0  0
  5  6  2  0  0  0
  5 15  1  0  0  0
  6  7  1  0  0  0
  6 30  1  0  0  0
  7  9  2  0  0  0
  7 10  1  0  0  0
  8 12  1  0  0  0
  8 13  1  0  0  0
 10 11  1  0  0  0
 11 16  1  0  0  0
 11 17  1  0  0  0
 11 18  1  0  0  0
 13 19  1  0  0  0
 13 20  1  0  0  0
 20 21  1  0  0  0
 20 22  1  0  0  0
 20 23  1  0  0  0
 21 24  1  0  0  0
 21 25  1  0  0  0
 21 26  1  0  0  0
 22 27  1  0  0  0
 22 28  1  0  0  0
 22 29  1  0  0  0
 30 34  1  0  0  0
 31 32  1  0  0  0
 31 36  2  0  0  0
 31 37  1  0  0  0
 32 33  2  0  0  0
 32 38  1  0  0  0
 33 34  1  0  0  0
 33 39  1  0  0  0
 34 35  2  0  0  0
 35 36  1  0  0  0
 35 40  1  0  0  0
 36 41  1  0  0  0
M  END
> <s_m_entry_id>
840

> <s_m_Source_Path>
/projects/mai/users/kmzp800_harry/pmx_colab/docking_jobs/p38/glide-dock_SP_p38_mcs_docking_2

> <s_m_Source_File>
glide-dock_SP_p38_mcs_docking_2_pv.maegz

> <i_m_Source_File_Index>
24

> <s_pdb_PDB_TITLE>
MX MODEL

> <r_i_docking_score>
-7.14302262375462

> <r_i_glide_gscore>
-7.14302262375462

> <r_i_glide_emodel>
-42.4304025781441

$$$$
lig_p38a_2p
                    3D
 Schrodinger Suite 2021-4.
 58 61  0  0  1  0            999 V2000
   34.6287   35.0726   21.1450 C   0  0  0  0  0  0
   34.0795   38.9836   23.8157 C   0  0  0  0  0  0
   34.7288   37.8991   21.4506 C   0  0  0  0  0  0
   35.0437   37.2809   20.1705 C   0  0  0  0  0  0
   34.3967   37.0778   22.5470 C   0  0  0  0  0  0
   34.7140   39.2899   21.6518 C   0  0  0  0  0  0
   34.9961   35.9419   20.0316 C   0  0  0  0  0  0
   34.3941   39.8378   22.8431 N   0  0  0  0  0  0
   34.5512   33.8589   20.9775 O   0  0  0  0  0  0
   34.4057   35.6535   22.3604 N   0  0  0  0  0  0
   34.0724   37.6553   23.7234 N   0  0  0  0  0  0
   33.7400   39.5492   25.0276 N   0  0  0  0  0  0
   35.2866   37.9283   19.3420 H   0  0  0  0  0  0
   34.9542   39.9497   20.8368 H   0  0  0  0  0  0
   33.7677   40.5606   25.0893 H   0  0  0  0  0  0
   34.1681   34.7791   23.5312 C   0  0  0  0  0  0
   34.9751   34.0478   23.6084 H   0  0  0  0  0  0
   34.2325   35.3336   24.4654 H   0  0  0  0  0  0
   32.8200   34.0379   23.4467 C   0  0  0  0  0  0
   32.0849   34.6718   22.9479 H   0  0  0  0  0  0
   32.9275   33.1585   22.8122 H   0  0  0  0  0  0
   32.2283   33.5885   24.7907 C   0  0  0  0  0  0
   31.3391   32.9859   24.6084 H   0  0  0  0  0  0
   32.9334   32.9751   25.3523 H   0  0  0  0  0  0
   31.7279   35.0242   25.8353 S   0  0  0  0  0  0
   32.8445   35.3441   26.7360 O   0  0  0  0  0  0
   31.1665   36.0690   24.9659 O   0  0  0  0  0  0
   30.3646   34.3245   26.8459 C   0  0  0  0  0  0
   29.9606   35.1071   27.4892 H   0  0  0  0  0  0
   29.5646   33.9769   26.1927 H   0  0  0  0  0  0
   30.7365   33.5035   27.4563 H   0  0  0  0  0  0
   33.3487   38.5172   28.6770 C   0  0  0  0  0  0
   33.9671   39.2256   27.4613 C   0  0  0  0  0  0
   33.2119   38.8356   26.1849 C   0  0  0  0  0  0
   31.7143   39.1169   26.3814 C   0  0  0  0  0  0
   31.2068   38.4246   27.6588 C   0  0  0  0  0  0
   31.9689   38.8541   28.7814 O   0  0  0  0  0  0
   33.4678   37.4352   28.6013 H   0  0  0  0  0  0
   33.8559   38.8316   29.5888 H   0  0  0  0  0  0
   35.0210   38.9597   27.3734 H   0  0  0  0  0  0
   33.9224   40.3062   27.6095 H   0  0  0  0  0  0
   33.3375   37.7627   26.0484 H   0  0  0  0  0  0
   31.5404   40.1910   26.4576 H   0  0  0  0  0  0
   31.1443   38.7682   25.5207 H   0  0  0  0  0  0
   31.2644   37.3409   27.5680 H   0  0  0  0  0  0
   30.1597   38.6623   27.8309 H   0  0  0  0  0  0
   35.2098   35.3078   18.8362 O   0  0  0  0  0  0
   37.9525   36.6171   15.9652 C   0  0  0  0  0  0
   38.4245   36.3491   17.2651 C   0  0  0  0  0  0
   37.5111   35.9944   18.2792 C   0  0  0  0  0  0
   36.1532   35.7557   17.9502 C   0  0  0  0  0  0
   35.7519   35.8710   16.6149 C   0  0  0  0  0  0
   36.6118   36.3887   15.6461 C   0  0  0  0  0  0
   38.7589   37.1498   15.0328 F   0  0  0  0  0  0
   39.4598   36.5401   17.5075 H   0  0  0  0  0  0
   37.9482   35.8966   19.5541 F   0  0  0  0  0  0
   34.7296   35.6395   16.3534 H   0  0  0  0  0  0
   36.2279   36.6899   14.6887 H   0  0  0  0  0  0
  1  7  1  0  0  0
  1  9  2  0  0  0
  1 10  1  0  0  0
  2  8  1  0  0  0
  2 11  2  0  0  0
  2 12  1  0  0  0
  3  4  1  0  0  0
  3  5  2  0  0  0
  3  6  1  0  0  0
  4  7  2  0  0  0
  4 13  1  0  0  0
  5 10  1  0  0  0
  5 11  1  0  0  0
  6  8  2  0  0  0
  6 14  1  0  0  0
  7 47  1  0  0  0
 10 16  1  0  0  0
 12 15  1  0  0  0
 12 34  1  0  0  0
 16 17  1  0  0  0
 16 18  1  0  0  0
 16 19  1  0  0  0
 19 20  1  0  0  0
 19 21  1  0  0  0
 19 22  1  0  0  0
 22 23  1  0  0  0
 22 24  1  0  0  0
 22 25  1  0  0  0
 25 26  2  0  0  0
 25 27  2  0  0  0
 25 28  1  0  0  0
 28 29  1  0  0  0
 28 30  1  0  0  0
 28 31  1  0  0  0
 32 33  1  0  0  0
 32 37  1  0  0  0
 32 38  1  0  0  0
 32 39  1  0  0  0
 33 34  1  0  0  0
 33 40  1  0  0  0
 33 41  1  0  0  0
 34 35  1  0  0  0
 34 42  1  0  0  0
 35 36  1  0  0  0
 35 43  1  0  0  0
 35 44  1  0  0  0
 36 37  1  0  0  0
 36 45  1  0  0  0
 36 46  1  0  0  0
 47 51  1  0  0  0
 48 49  1  0  0  0
 48 53  2  0  0  0
 48 54  1  0  0  0
 49 50  2  0  0  0
 49 55  1  0  0  0
 50 51  1  0  0  0
 50 56  1  0  0  0
 51 52  2  0  0  0
 52 53  1  0  0  0
 52 57  1  0  0  0
 53 58  1  0  0  0
M  END
> <s_m_entry_id>
841

> <s_m_Source_Path>
/projects/mai/users/kmzp800_harry/pmx_colab/docking_jobs/p38/glide-dock_SP_p38_mcs_docking_2

> <s_m_Source_File>
glide-dock_SP_p38_mcs_docking_2_pv.maegz

> <i_m_Source_File_Index>
25

> <s_pdb_PDB_TITLE>
MX MODEL

> <r_i_docking_score>
-7.06736902862137

> <r_i_glide_gscore>
-7.06736902862137

> <r_i_glide_emodel>
-46.1683749931057

$$$$
lig_p38a_2x
                    3D
 Schrodinger Suite 2021-4.
 43 46  0  0  1  0            999 V2000
   34.3272   35.0195   21.1723 C   0  0  0  0  0  0
   33.9756   38.9531   23.8406 C   0  0  0  0  0  0
   34.7663   37.8212   21.5430 C   0  0  0  0  0  0
   35.1740   37.1595   20.3095 C   0  0  0  0  0  0
   34.1472   37.0528   22.5499 C   0  0  0  0  0  0
   34.9507   39.1944   21.7975 C   0  0  0  0  0  0
   34.9789   35.8324   20.1419 C   0  0  0  0  0  0
   33.2486   34.8983   23.3738 C   0  0  0  0  0  0
   34.5489   39.7632   22.9534 N   0  0  0  0  0  0
   34.1482   33.8138   20.9983 O   0  0  0  0  0  0
   33.9366   35.6556   22.3151 N   0  0  0  0  0  0
   33.7639   37.6471   23.7008 N   0  0  0  0  0  0
   33.5497   39.5497   25.0048 N   0  0  0  0  0  0
   35.6225   37.7739   19.5418 H   0  0  0  0  0  0
   35.4201   39.8429   21.0741 H   0  0  0  0  0  0
   32.2596   35.3221   23.5519 H   0  0  0  0  0  0
   33.1070   33.8367   23.1664 H   0  0  0  0  0  0
   33.8118   34.9654   24.3056 H   0  0  0  0  0  0
   33.7533   40.5374   25.1097 H   0  0  0  0  0  0
   33.1178   38.8416   26.2010 C   0  0  2  0  0  0
   32.3138   39.7362   27.1405 C   0  0  0  0  0  0
   33.1200   39.7404   28.4368 C   0  0  0  0  0  0
   33.8314   38.5146   28.3905 O   0  0  0  0  0  0
   34.2978   38.3700   27.0584 C   0  0  0  0  0  0
   32.4971   37.9876   25.9270 H   0  0  0  0  0  0
   32.1536   40.7462   26.7598 H   0  0  0  0  0  0
   31.3327   39.2910   27.3134 H   0  0  0  0  0  0
   33.8268   40.5718   28.4456 H   0  0  0  0  0  0
   32.4931   39.8164   29.3245 H   0  0  0  0  0  0
   34.5936   37.3429   26.8388 H   0  0  0  0  0  0
   35.1720   39.0084   26.9219 H   0  0  0  0  0  0
   35.3033   35.1548   18.9919 O   0  0  0  0  0  0
   37.8219   36.5802   15.9723 C   0  0  0  0  0  0
   38.3589   36.3493   17.2573 C   0  0  0  0  0  0
   37.5045   35.9911   18.3192 C   0  0  0  0  0  0
   36.1528   35.6732   18.0500 C   0  0  0  0  0  0
   35.6844   35.7465   16.7307 C   0  0  0  0  0  0
   36.4813   36.2798   15.7078 C   0  0  0  0  0  0
   38.5612   37.1500   15.0023 F   0  0  0  0  0  0
   39.3916   36.5924   17.4609 H   0  0  0  0  0  0
   37.9881   35.9357   19.5813 F   0  0  0  0  0  0
   34.6610   35.4720   16.5174 H   0  0  0  0  0  0
   36.0744   36.4512   14.7201 H   0  0  0  0  0  0
  1  7  1  0  0  0
  1 10  2  0  0  0
  1 11  1  0  0  0
  2  9  1  0  0  0
  2 12  2  0  0  0
  2 13  1  0  0  0
  3  4  1  0  0  0
  3  5  2  0  0  0
  3  6  1  0  0  0
  4  7  2  0  0  0
  4 14  1  0  0  0
  5 11  1  0  0  0
  5 12  1  0  0  0
  6  9  2  0  0  0
  6 15  1  0  0  0
  7 32  1  0  0  0
  8 11  1  0  0  0
  8 16  1  0  0  0
  8 17  1  0  0  0
  8 18  1  0  0  0
 13 19  1  0  0  0
 13 20  1  0  0  0
 20 21  1  0  0  0
 20 24  1  0  0  0
 20 25  1  0  0  0
 21 22  1  0  0  0
 21 26  1  0  0  0
 21 27  1  0  0  0
 22 23  1  0  0  0
 22 28  1  0  0  0
 22 29  1  0  0  0
 23 24  1  0  0  0
 24 30  1  0  0  0
 24 31  1  0  0  0
 32 36  1  0  0  0
 33 34  1  0  0  0
 33 38  2  0  0  0
 33 39  1  0  0  0
 34 35  2  0  0  0
 34 40  1  0  0  0
 35 36  1  0  0  0
 35 41  1  0  0  0
 36 37  2  0  0  0
 37 38  1  0  0  0
 37 42  1  0  0  0
 38 43  1  0  0  0
M  END
> <s_m_entry_id>
842

> <s_m_Source_Path>
/projects/mai/users/kmzp800_harry/pmx_colab/docking_jobs/p38/glide-dock_SP_p38_mcs_docking_2

> <s_m_Source_File>
glide-dock_SP_p38_mcs_docking_2_pv.maegz

> <i_m_Source_File_Index>
26

> <s_pdb_PDB_TITLE>
MX MODEL

> <r_i_docking_score>
-7.03366946488616

> <r_i_glide_gscore>
-7.03366946488616

> <r_i_glide_emodel>
-40.1414185583568

$$$$
lig_p38a_2z
                    3D
 Schrodinger Suite 2021-4.
 45 47  0  0  1  0            999 V2000
   34.3086   35.0785   21.1020 C   0  0  0  0  0  0
   33.9360   38.9758   23.8259 C   0  0  0  0  0  0
   34.7394   37.8804   21.5047 C   0  0  0  0  0  0
   35.1576   37.2301   20.2662 C   0  0  0  0  0  0
   34.0997   37.1012   22.4890 C   0  0  0  0  0  0
   34.9365   39.2463   21.7931 C   0  0  0  0  0  0
   34.9614   35.9046   20.0824 C   0  0  0  0  0  0
   33.2214   34.9308   23.2963 C   0  0  0  0  0  0
   34.5367   39.7935   22.9623 N   0  0  0  0  0  0
   34.1527   33.8694   20.9259 O   0  0  0  0  0  0
   33.8953   35.7058   22.2408 N   0  0  0  0  0  0
   33.7034   37.6800   23.6409 N   0  0  0  0  0  0
   33.5386   39.5493   25.0202 N   0  0  0  0  0  0
   35.6059   37.8512   19.5041 H   0  0  0  0  0  0
   35.4233   39.9040   21.0891 H   0  0  0  0  0  0
   32.9692   33.9057   23.0233 H   0  0  0  0  0  0
   33.8546   34.8836   24.1831 H   0  0  0  0  0  0
   32.2848   35.4126   23.5800 H   0  0  0  0  0  0
   33.7523   40.5343   25.1282 H   0  0  0  0  0  0
   32.7161   38.9699   26.0882 C   0  0  0  0  0  0
   33.4107   37.7303   26.7175 C   0  0  0  0  0  0
   32.5674   40.0590   27.1649 C   0  0  0  0  0  0
   31.3080   38.6188   25.5560 C   0  0  0  0  0  0
   31.9064   39.7467   27.9738 H   0  0  0  0  0  0
   33.5288   40.3203   27.6087 H   0  0  0  0  0  0
   32.1520   40.9695   26.7377 H   0  0  0  0  0  0
   30.6526   38.2842   26.3613 H   0  0  0  0  0  0
   30.8305   39.4821   25.0904 H   0  0  0  0  0  0
   31.3337   37.8181   24.8175 H   0  0  0  0  0  0
   32.7150   37.2475   27.8502 O   0  0  0  0  0  0
   34.4293   37.9769   27.0199 H   0  0  0  0  0  0
   33.4826   36.9012   26.0162 H   0  0  0  0  0  0
   33.1585   36.4769   28.1703 H   0  0  0  0  0  0
   35.2790   35.2410   18.9227 O   0  0  0  0  0  0
   37.9250   36.6069   15.9859 C   0  0  0  0  0  0
   38.4205   36.3493   17.2816 C   0  0  0  0  0  0
   37.5287   36.0022   18.3169 C   0  0  0  0  0  0
   36.1726   35.7369   18.0106 C   0  0  0  0  0  0
   35.7514   35.8280   16.6764 C   0  0  0  0  0  0
   36.5854   36.3489   15.6818 C   0  0  0  0  0  0
   38.7089   37.1493   15.0388 F   0  0  0  0  0  0
   39.4559   36.5568   17.5090 H   0  0  0  0  0  0
   37.9823   35.9240   19.5877 F   0  0  0  0  0  0
   34.7365   35.5494   16.4282 H   0  0  0  0  0  0
   36.2058   36.5397   14.6891 H   0  0  0  0  0  0
  1  7  1  0  0  0
  1 10  2  0  0  0
  1 11  1  0  0  0
  2  9  1  0  0  0
  2 12  2  0  0  0
  2 13  1  0  0  0
  3  4  1  0  0  0
  3  5  2  0  0  0
  3  6  1  0  0  0
  4  7  2  0  0  0
  4 14  1  0  0  0
  5 11  1  0  0  0
  5 12  1  0  0  0
  6  9  2  0  0  0
  6 15  1  0  0  0
  7 34  1  0  0  0
  8 11  1  0  0  0
  8 16  1  0  0  0
  8 17  1  0  0  0
  8 18  1  0  0  0
 13 19  1  0  0  0
 13 20  1  0  0  0
 20 21  1  0  0  0
 20 22  1  0  0  0
 20 23  1  0  0  0
 21 30  1  0  0  0
 21 31  1  0  0  0
 21 32  1  0  0  0
 22 24  1  0  0  0
 22 25  1  0  0  0
 22 26  1  0  0  0
 23 27  1  0  0  0
 23 28  1  0  0  0
 23 29  1  0  0  0
 30 33  1  0  0  0
 34 38  1  0  0  0
 35 36  1  0  0  0
 35 40  2  0  0  0
 35 41  1  0  0  0
 36 37  2  0  0  0
 36 42  1  0  0  0
 37 38  1  0  0  0
 37 43  1  0  0  0
 38 39  2  0  0  0
 39 40  1  0  0  0
 39 44  1  0  0  0
 40 45  1  0  0  0
M  END
> <s_m_entry_id>
843

> <s_m_Source_Path>
/projects/mai/users/kmzp800_harry/pmx_colab/docking_jobs/p38/glide-dock_SP_p38_mcs_docking_2

> <s_m_Source_File>
glide-dock_SP_p38_mcs_docking_2_pv.maegz

> <i_m_Source_File_Index>
27

> <s_pdb_PDB_TITLE>
MX MODEL

> <r_i_docking_score>
-7.03134356942808

> <r_i_glide_gscore>
-7.03134356942808

> <r_i_glide_emodel>
-39.1807692020064

$$$$
lig_p38a_3flq
                    3D
 Schrodinger Suite 2021-4.
 47 49  0  0  1  0            999 V2000
   34.0530   38.9805   23.9111 C   0  0  0  0  0  0
   34.7677   37.8613   21.5700 C   0  0  0  0  0  0
   35.1637   37.1904   20.3314 C   0  0  0  0  0  0
   34.1715   37.0909   22.5870 C   0  0  0  0  0  0
   34.9736   35.8601   20.1769 C   0  0  0  0  0  0
   33.9561   35.6934   22.3620 N   0  0  0  0  0  0
   34.3310   35.0530   21.2180 C   0  0  0  0  0  0
   34.1483   33.8473   21.0524 O   0  0  0  0  0  0
   34.9506   39.2349   21.8297 C   0  0  0  0  0  0
   34.5950   39.7945   23.0078 N   0  0  0  0  0  0
   33.8188   37.6815   23.7486 N   0  0  0  0  0  0
   33.3030   34.9377   23.4436 C   0  0  0  0  0  0
   33.7161   39.5493   25.1266 N   0  0  0  0  0  0
   35.6043   37.7965   19.5538 H   0  0  0  0  0  0
   35.4048   39.8840   21.0982 H   0  0  0  0  0  0
   33.0996   33.8914   23.2174 H   0  0  0  0  0  0
   33.9310   34.9584   24.3340 H   0  0  0  0  0  0
   32.3474   35.3991   23.6957 H   0  0  0  0  0  0
   33.9092   40.5439   25.2052 H   0  0  0  0  0  0
   32.6442   39.0834   26.0076 C   0  0  1  0  0  0
   31.2866   39.1347   25.2797 C   0  0  0  0  0  0
   32.9687   37.7488   26.7296 C   0  0  0  0  0  0
   32.5900   39.8428   26.7871 H   0  0  0  0  0  0
   30.4539   38.9933   25.9641 H   0  0  0  0  0  0
   31.1322   40.1093   24.8137 H   0  0  0  0  0  0
   31.2155   38.3766   24.4988 H   0  0  0  0  0  0
   33.9102   37.8558   27.2655 H   0  0  0  0  0  0
   33.0923   36.9173   26.0416 H   0  0  0  0  0  0
   31.7051   37.2263   27.9783 S   0  0  0  0  0  0
   30.9569   38.4087   28.4276 O   0  0  0  0  0  0
   30.5718   36.1599   26.9946 C   0  0  0  0  0  0
   32.3746   36.3654   28.9648 O   0  0  0  0  0  0
   29.7563   35.8201   27.6337 H   0  0  0  0  0  0
   31.1118   35.2923   26.6204 H   0  0  0  0  0  0
   30.1496   36.7116   26.1585 H   0  0  0  0  0  0
   35.2916   35.1658   19.0337 O   0  0  0  0  0  0
   37.8160   36.5710   16.0047 C   0  0  0  0  0  0
   38.3556   36.3493   17.2894 C   0  0  0  0  0  0
   37.5110   35.9517   18.3455 C   0  0  0  0  0  0
   36.1518   35.6553   18.0862 C   0  0  0  0  0  0
   35.6789   35.7307   16.7680 C   0  0  0  0  0  0
   36.4782   36.2544   15.7425 C   0  0  0  0  0  0
   38.5526   37.1497   15.0346 F   0  0  0  0  0  0
   39.3879   36.5993   17.4922 H   0  0  0  0  0  0
   38.0018   35.9129   19.6029 F   0  0  0  0  0  0
   34.6510   35.4708   16.5581 H   0  0  0  0  0  0
   36.0651   36.4227   14.7568 H   0  0  0  0  0  0
  1 10  1  0  0  0
  1 11  2  0  0  0
  1 13  1  0  0  0
  2  3  1  0  0  0
  2  4  2  0  0  0
  2  9  1  0  0  0
  3  5  2  0  0  0
  3 14  1  0  0  0
  4  6  1  0  0  0
  4 11  1  0  0  0
  5  7  1  0  0  0
  5 36  1  0  0  0
  6  7  1  0  0  0
  6 12  1  0  0  0
  7  8  2  0  0  0
  9 10  2  0  0  0
  9 15  1  0  0  0
 12 16  1  0  0  0
 12 17  1  0  0  0
 12 18  1  0  0  0
 13 19  1  0  0  0
 13 20  1  0  0  0
 20 21  1  0  0  0
 20 22  1  0  0  0
 20 23  1  0  0  0
 21 24  1  0  0  0
 21 25  1  0  0  0
 21 26  1  0  0  0
 22 27  1  0  0  0
 22 28  1  0  0  0
 22 29  1  0  0  0
 29 30  2  0  0  0
 29 31  1  0  0  0
 29 32  2  0  0  0
 31 33  1  0  0  0
 31 34  1  0  0  0
 31 35  1  0  0  0
 36 40  1  0  0  0
 37 38  1  0  0  0
 37 42  2  0  0  0
 37 43  1  0  0  0
 38 39  2  0  0  0
 38 44  1  0  0  0
 39 40  1  0  0  0
 39 45  1  0  0  0
 40 41  2  0  0  0
 41 42  1  0  0  0
 41 46  1  0  0  0
 42 47  1  0  0  0
M  END
> <s_m_entry_id>
844

> <s_m_Source_Path>
/projects/mai/users/kmzp800_harry/pmx_colab/docking_jobs/p38/glide-dock_SP_p38_mcs_docking_2

> <s_m_Source_File>
glide-dock_SP_p38_mcs_docking_2_pv.maegz

> <i_m_Source_File_Index>
28

> <s_pdb_PDB_TITLE>
MX MODEL

> <r_i_docking_score>
-7.01067028133592

> <r_i_glide_gscore>
-7.01067028133592

> <r_i_glide_emodel>
-40.43498370262

$$$$
lig_p38a_2ee
                    3D
 Schrodinger Suite 2021-4.
 52 55  0  0  1  0            999 V2000
   34.5509   35.0891   21.2462 C   0  0  0  0  0  0
   34.4734   38.9764   23.9880 C   0  0  0  0  0  0
   34.9744   37.8897   21.5887 C   0  0  0  0  0  0
   35.2255   37.2522   20.3019 C   0  0  0  0  0  0
   34.6031   37.0813   22.6798 C   0  0  0  0  0  0
   35.0690   39.2765   21.8134 C   0  0  0  0  0  0
   35.0580   35.9206   20.1513 C   0  0  0  0  0  0
   34.0511   34.8293   23.6129 C   0  0  0  0  0  0
   34.8415   39.8208   23.0285 N   0  0  0  0  0  0
   34.2464   33.9126   21.0578 O   0  0  0  0  0  0
   34.4427   35.6733   22.4711 N   0  0  0  0  0  0
   34.3721   37.6553   23.8754 N   0  0  0  0  0  0
   34.0371   39.5496   25.1661 N   0  0  0  0  0  0
   35.5618   37.8788   19.4882 H   0  0  0  0  0  0
   35.3636   39.9502   21.0212 H   0  0  0  0  0  0
   34.4719   33.8225   23.5514 H   0  0  0  0  0  0
   34.3891   35.2320   24.5678 H   0  0  0  0  0  0
   32.9659   34.7410   23.6508 H   0  0  0  0  0  0
   34.1508   40.5567   25.2086 H   0  0  0  0  0  0
   30.4777   38.1359   25.4930 C   0  0  0  0  0  0
   31.6472   38.8885   24.8643 C   0  0  0  0  0  0
   32.8310   39.0915   25.8527 C   0  0  0  0  0  0
   33.1076   37.8758   26.7788 C   0  0  0  0  0  0
   31.8022   37.2674   27.3153 C   0  0  0  0  0  0
   29.7517   37.9124   24.7106 H   0  0  0  0  0  0
   29.9666   38.7551   26.2257 H   0  0  0  0  0  0
   31.9350   38.3095   23.9887 H   0  0  0  0  0  0
   31.3067   39.8520   24.4868 H   0  0  0  0  0  0
   32.5357   39.9099   26.5103 H   0  0  0  0  0  0
   33.7463   38.1799   27.6093 H   0  0  0  0  0  0
   33.6564   37.0960   26.2528 H   0  0  0  0  0  0
   31.2806   37.9870   27.9506 H   0  0  0  0  0  0
   32.0135   36.4140   27.9596 H   0  0  0  0  0  0
   30.9687   36.9281   26.1589 N   0  0  0  0  0  0
   30.8323   35.6917   25.6252 C   0  0  0  0  0  0
   30.2666   35.4928   24.5513 O   0  0  0  0  0  0
   31.4109   34.4860   26.3698 C   0  0  0  0  0  0
   32.4812   34.5988   26.5284 H   0  0  0  0  0  0
   31.2585   33.5763   25.7931 H   0  0  0  0  0  0
   30.9172   34.3610   27.3320 H   0  0  0  0  0  0
   35.2661   35.2628   18.9674 O   0  0  0  0  0  0
   37.8251   36.5950   15.9331 C   0  0  0  0  0  0
   38.3678   36.3493   17.2148 C   0  0  0  0  0  0
   37.5133   36.0015   18.2827 C   0  0  0  0  0  0
   36.1496   35.7246   18.0259 C   0  0  0  0  0  0
   35.6820   35.8001   16.7099 C   0  0  0  0  0  0
   36.4790   36.3159   15.6803 C   0  0  0  0  0  0
   38.5619   37.1510   14.9558 F   0  0  0  0  0  0
   39.4053   36.5734   17.4128 H   0  0  0  0  0  0
   38.0046   35.9488   19.5428 F   0  0  0  0  0  0
   34.6505   35.5497   16.5018 H   0  0  0  0  0  0
   36.0662   36.4946   14.6958 H   0  0  0  0  0  0
  1  7  1  0  0  0
  1 10  2  0  0  0
  1 11  1  0  0  0
  2  9  1  0  0  0
  2 12  2  0  0  0
  2 13  1  0  0  0
  3  4  1  0  0  0
  3  5  2  0  0  0
  3  6  1  0  0  0
  4  7  2  0  0  0
  4 14  1  0  0  0
  5 11  1  0  0  0
  5 12  1  0  0  0
  6  9  2  0  0  0
  6 15  1  0  0  0
  7 41  1  0  0  0
  8 11  1  0  0  0
  8 16  1  0  0  0
  8 17  1  0  0  0
  8 18  1  0  0  0
 13 19  1  0  0  0
 13 22  1  0  0  0
 20 21  1  0  0  0
 20 25  1  0  0  0
 20 26  1  0  0  0
 20 34  1  0  0  0
 21 22  1  0  0  0
 21 27  1  0  0  0
 21 28  1  0  0  0
 22 23  1  0  0  0
 22 29  1  0  0  0
 23 24  1  0  0  0
 23 30  1  0  0  0
 23 31  1  0  0  0
 24 32  1  0  0  0
 24 33  1  0  0  0
 24 34  1  0  0  0
 34 35  1  0  0  0
 35 36  2  0  0  0
 35 37  1  0  0  0
 37 38  1  0  0  0
 37 39  1  0  0  0
 37 40  1  0  0  0
 41 45  1  0  0  0
 42 43  1  0  0  0
 42 47  2  0  0  0
 42 48  1  0  0  0
 43 44  2  0  0  0
 43 49  1  0  0  0
 44 45  1  0  0  0
 44 50  1  0  0  0
 45 46  2  0  0  0
 46 47  1  0  0  0
 46 51  1  0  0  0
 47 52  1  0  0  0
M  END
> <s_m_entry_id>
845

> <s_m_Source_Path>
/projects/mai/users/kmzp800_harry/pmx_colab/docking_jobs/p38/glide-dock_SP_p38_mcs_docking_2

> <s_m_Source_File>
glide-dock_SP_p38_mcs_docking_2_pv.maegz

> <i_m_Source_File_Index>
29

> <s_pdb_PDB_TITLE>
MX MODEL

> <r_i_docking_score>
-7.00929181434088

> <r_i_glide_gscore>
-7.00929181434088

> <r_i_glide_emodel>
-38.4133687120509

$$$$
lig_p38a_2v
                    3D
 Schrodinger Suite 2021-4.
 35 37  0  0  1  0            999 V2000
   34.5460   35.1111   21.2452 C   0  0  0  0  0  0
   34.0468   39.1327   23.7478 C   0  0  0  0  0  0
   33.3435   38.9987   26.1418 C   0  0  0  0  0  0
   34.7343   37.9465   21.4498 C   0  0  0  0  0  0
   35.0975   37.2663   20.2158 C   0  0  0  0  0  0
   34.3242   37.1799   22.5567 C   0  0  0  0  0  0
   34.7703   39.3421   21.6022 C   0  0  0  0  0  0
   35.0139   35.9251   20.1216 C   0  0  0  0  0  0
   33.8441   34.9878   23.5936 C   0  0  0  0  0  0
   34.4289   39.9469   22.7615 N   0  0  0  0  0  0
   34.4162   33.8958   21.1250 O   0  0  0  0  0  0
   34.2640   35.7601   22.4128 N   0  0  0  0  0  0
   33.9844   37.8025   23.7019 N   0  0  0  0  0  0
   33.6690   39.7285   24.9287 N   0  0  0  0  0  0
   33.1806   39.6982   26.9605 H   0  0  0  0  0  0
   35.4071   37.8756   19.3815 H   0  0  0  0  0  0
   35.0751   39.9493   20.7699 H   0  0  0  0  0  0
   33.8023   33.9078   23.4547 H   0  0  0  0  0  0
   34.5240   35.1737   24.4314 H   0  0  0  0  0  0
   32.8463   35.3061   23.9062 H   0  0  0  0  0  0
   33.7578   40.7356   25.0070 H   0  0  0  0  0  0
   34.1515   38.3228   26.4272 H   0  0  0  0  0  0
   32.4322   38.4163   25.9975 H   0  0  0  0  0  0
   35.2884   35.2454   18.9629 O   0  0  0  0  0  0
   37.9120   36.6107   16.0046 C   0  0  0  0  0  0
   38.4212   36.3492   17.2959 C   0  0  0  0  0  0
   37.5384   36.0042   18.3334 C   0  0  0  0  0  0
   36.1776   35.7284   18.0408 C   0  0  0  0  0  0
   35.7462   35.8242   16.7141 C   0  0  0  0  0  0
   36.5684   36.3494   15.7130 C   0  0  0  0  0  0
   38.6853   37.1500   15.0496 F   0  0  0  0  0  0
   39.4538   36.5648   17.5146 H   0  0  0  0  0  0
   37.9997   35.9327   19.6015 F   0  0  0  0  0  0
   34.7297   35.5525   16.4705 H   0  0  0  0  0  0
   36.1769   36.5328   14.7270 H   0  0  0  0  0  0
  1  8  1  0  0  0
  1 11  2  0  0  0
  1 12  1  0  0  0
  2 10  1  0  0  0
  2 13  2  0  0  0
  2 14  1  0  0  0
  3 14  1  0  0  0
  3 15  1  0  0  0
  3 22  1  0  0  0
  3 23  1  0  0  0
  4  5  1  0  0  0
  4  6  2  0  0  0
  4  7  1  0  0  0
  5  8  2  0  0  0
  5 16  1  0  0  0
  6 12  1  0  0  0
  6 13  1  0  0  0
  7 10  2  0  0  0
  7 17  1  0  0  0
  8 24  1  0  0  0
  9 12  1  0  0  0
  9 18  1  0  0  0
  9 19  1  0  0  0
  9 20  1  0  0  0
 14 21  1  0  0  0
 24 28  1  0  0  0
 25 26  1  0  0  0
 25 30  2  0  0  0
 25 31  1  0  0  0
 26 27  2  0  0  0
 26 32  1  0  0  0
 27 28  1  0  0  0
 27 33  1  0  0  0
 28 29  2  0  0  0
 29 30  1  0  0  0
 29 34  1  0  0  0
 30 35  1  0  0  0
M  END
> <s_m_entry_id>
846

> <s_m_Source_Path>
/projects/mai/users/kmzp800_harry/pmx_colab/docking_jobs/p38/glide-dock_SP_p38_mcs_docking_2

> <s_m_Source_File>
glide-dock_SP_p38_mcs_docking_2_pv.maegz

> <i_m_Source_File_Index>
30

> <s_pdb_PDB_TITLE>
MX MODEL

> <r_i_docking_score>
-7.00713414247998

> <r_i_glide_gscore>
-7.00713414247998

> <r_i_glide_emodel>
-39.3957082234162

$$$$
lig_p38a_2r
                    3D
 Schrodinger Suite 2021-4.
 56 59  0  0  1  0            999 V2000
   34.3295   35.0640   21.1989 C   0  0  0  0  0  0
   33.9954   39.0032   23.8498 C   0  0  0  0  0  0
   34.7394   37.8791   21.5269 C   0  0  0  0  0  0
   35.1473   37.2036   20.2994 C   0  0  0  0  0  0
   34.1420   37.1098   22.5436 C   0  0  0  0  0  0
   34.9097   39.2575   21.7783 C   0  0  0  0  0  0
   34.9686   35.8699   20.1557 C   0  0  0  0  0  0
   34.5364   39.8219   22.9495 N   0  0  0  0  0  0
   34.1529   33.8558   21.0406 O   0  0  0  0  0  0
   33.9434   35.7080   22.3382 N   0  0  0  0  0  0
   33.7824   37.7023   23.6980 N   0  0  0  0  0  0
   33.6586   39.5497   25.0689 N   0  0  0  0  0  0
   35.5850   37.8096   19.5192 H   0  0  0  0  0  0
   35.3615   39.9097   21.0470 H   0  0  0  0  0  0
   33.8053   40.5468   25.1872 H   0  0  0  0  0  0
   33.2486   34.9549   23.4080 C   0  0  0  0  0  0
   32.4048   35.5368   23.7840 H   0  0  0  0  0  0
   32.7628   34.0709   22.9919 H   0  0  0  0  0  0
   34.1552   34.5107   24.5891 C   0  0  0  0  0  0
   34.4098   35.6148   25.4270 O   0  0  0  0  0  0
   34.2725   36.4088   24.9164 H   0  0  0  0  0  0
   35.5255   33.9506   24.1846 C   0  0  0  0  0  0
   35.4251   33.1493   23.4565 H   0  0  0  0  0  0
   36.1512   34.7298   23.7491 H   0  0  0  0  0  0
   36.0645   33.5523   25.0454 H   0  0  0  0  0  0
   33.3689   33.5493   25.4903 C   0  0  0  0  0  0
   32.9522   32.7240   24.9183 H   0  0  0  0  0  0
   33.9961   33.1327   26.2788 H   0  0  0  0  0  0
   32.5266   34.0510   25.9684 H   0  0  0  0  0  0
   33.1916   38.4336   28.6780 C   0  0  0  0  0  0
   33.7893   39.2419   27.5169 C   0  0  0  0  0  0
   33.1188   38.8161   26.2080 C   0  0  0  0  0  0
   31.5998   38.9837   26.3370 C   0  0  0  0  0  0
   31.0968   38.2038   27.5648 C   0  0  0  0  0  0
   31.7822   38.6467   28.7336 O   0  0  0  0  0  0
   33.4080   37.3697   28.5676 H   0  0  0  0  0  0
   33.6323   38.7520   29.6229 H   0  0  0  0  0  0
   34.8660   39.0756   27.4647 H   0  0  0  0  0  0
   33.6386   40.3084   27.6927 H   0  0  0  0  0  0
   33.3192   37.7548   26.0899 H   0  0  0  0  0  0
   31.3517   40.0403   26.4418 H   0  0  0  0  0  0
   31.0979   38.6261   25.4372 H   0  0  0  0  0  0
   31.2485   37.1319   27.4301 H   0  0  0  0  0  0
   30.0252   38.3514   27.7005 H   0  0  0  0  0  0
   35.2946   35.1748   19.0176 O   0  0  0  0  0  0
   37.8272   36.5824   16.0004 C   0  0  0  0  0  0
   38.3632   36.3493   17.2848 C   0  0  0  0  0  0
   37.5112   35.9678   18.3420 C   0  0  0  0  0  0
   36.1523   35.6765   18.0767 C   0  0  0  0  0  0
   35.6821   35.7671   16.7607 C   0  0  0  0  0  0
   36.4846   36.2900   15.7387 C   0  0  0  0  0  0
   38.5677   37.1497   15.0301 F   0  0  0  0  0  0
   39.3970   36.5880   17.4888 H   0  0  0  0  0  0
   37.9996   35.9022   19.6009 F   0  0  0  0  0  0
   34.6527   35.5177   16.5478 H   0  0  0  0  0  0
   36.0725   36.4720   14.7571 H   0  0  0  0  0  0
  1  7  1  0  0  0
  1  9  2  0  0  0
  1 10  1  0  0  0
  2  8  1  0  0  0
  2 11  2  0  0  0
  2 12  1  0  0  0
  3  4  1  0  0  0
  3  5  2  0  0  0
  3  6  1  0  0  0
  4  7  2  0  0  0
  4 13  1  0  0  0
  5 10  1  0  0  0
  5 11  1  0  0  0
  6  8  2  0  0  0
  6 14  1  0  0  0
  7 45  1  0  0  0
 10 16  1  0  0  0
 12 15  1  0  0  0
 12 32  1  0  0  0
 16 17  1  0  0  0
 16 18  1  0  0  0
 16 19  1  0  0  0
 19 20  1  0  0  0
 19 22  1  0  0  0
 19 26  1  0  0  0
 20 21  1  0  0  0
 22 23  1  0  0  0
 22 24  1  0  0  0
 22 25  1  0  0  0
 26 27  1  0  0  0
 26 28  1  0  0  0
 26 29  1  0  0  0
 30 31  1  0  0  0
 30 35  1  0  0  0
 30 36  1  0  0  0
 30 37  1  0  0  0
 31 32  1  0  0  0
 31 38  1  0  0  0
 31 39  1  0  0  0
 32 33  1  0  0  0
 32 40  1  0  0  0
 33 34  1  0  0  0
 33 41  1  0  0  0
 33 42  1  0  0  0
 34 35  1  0  0  0
 34 43  1  0  0  0
 34 44  1  0  0  0
 45 49  1  0  0  0
 46 47  1  0  0  0
 46 51  2  0  0  0
 46 52  1  0  0  0
 47 48  2  0  0  0
 47 53  1  0  0  0
 48 49  1  0  0  0
 48 54  1  0  0  0
 49 50  2  0  0  0
 50 51  1  0  0  0
 50 55  1  0  0  0
 51 56  1  0  0  0
M  END
> <s_m_entry_id>
847

> <s_m_Source_Path>
/projects/mai/users/kmzp800_harry/pmx_colab/docking_jobs/p38/glide-dock_SP_p38_mcs_docking_2

> <s_m_Source_File>
glide-dock_SP_p38_mcs_docking_2_pv.maegz

> <i_m_Source_File_Index>
31

> <s_pdb_PDB_TITLE>
MX MODEL

> <r_i_docking_score>
-6.88872289827319

> <r_i_glide_gscore>
-6.88872289827319

> <r_i_glide_emodel>
-43.4480746094941

$$$$
lig_p38a_3fln
                    3D
 Schrodinger Suite 2021-4.
 46 49  0  0  1  0            999 V2000
   34.5008   34.9426   21.0732 C   0  0  0  0  0  0
   34.1640   38.7349   23.9187 C   0  0  0  0  0  0
   34.8860   37.7407   21.5360 C   0  0  0  0  0  0
   35.2317   37.1428   20.2517 C   0  0  0  0  0  0
   34.4202   36.8925   22.5600 C   0  0  0  0  0  0
   34.9528   39.1218   21.8204 C   0  0  0  0  0  0
   35.0626   35.8169   20.0436 C   0  0  0  0  0  0
   33.8712   34.6177   23.4099 C   0  0  0  0  0  0
   34.5913   39.6203   23.0232 N   0  0  0  0  0  0
   34.2113   33.7703   20.8229 O   0  0  0  0  0  0
   34.3073   35.4883   22.3039 N   0  0  0  0  0  0
   34.0687   37.4208   23.7450 N   0  0  0  0  0  0
   33.7350   39.2344   25.1282 N   0  0  0  0  0  0
   35.6156   37.7979   19.4839 H   0  0  0  0  0  0
   35.2939   39.8313   21.0835 H   0  0  0  0  0  0
   32.7852   34.6681   23.5156 H   0  0  0  0  0  0
   34.1480   33.5686   23.2751 H   0  0  0  0  0  0
   34.3164   34.9256   24.3588 H   0  0  0  0  0  0
   33.7791   40.2381   25.2275 H   0  0  0  0  0  0
   33.8703   38.0096   28.1444 C   0  0  0  0  0  0
   33.2831   37.4528   26.8400 C   0  0  0  0  0  0
   32.7106   38.5435   25.9075 C   0  0  0  0  0  0
   31.8573   39.5288   26.7106 C   0  0  0  0  0  0
   32.6441   39.9930   27.9466 C   0  0  0  0  0  0
   32.9164   38.8630   28.7628 O   0  0  0  0  0  0
   34.1115   37.1927   28.8260 H   0  0  0  0  0  0
   34.8018   38.5461   27.9572 H   0  0  0  0  0  0
   32.4711   36.7764   27.1044 H   0  0  0  0  0  0
   34.0209   36.8348   26.3287 H   0  0  0  0  0  0
   32.0412   38.0620   25.1915 H   0  0  0  0  0  0
   31.5586   40.3780   26.0955 H   0  0  0  0  0  0
   30.9379   39.0421   27.0365 H   0  0  0  0  0  0
   32.1275   40.7489   28.5277 H   0  0  0  0  0  0
   33.5752   40.4719   27.6433 H   0  0  0  0  0  0
   35.3219   35.1981   18.8491 O   0  0  0  0  0  0
   37.8683   36.7070   15.8992 C   0  0  0  0  0  0
   38.4233   36.3535   17.1547 C   0  0  0  0  0  0
   37.5613   35.9966   18.2137 C   0  0  0  0  0  0
   36.2029   35.7085   17.9359 C   0  0  0  0  0  0
   35.7512   35.8100   16.6177 C   0  0  0  0  0  0
   36.5372   36.3909   15.6265 C   0  0  0  0  0  0
   38.5553   37.4113   14.9794 F   0  0  0  0  0  0
   39.4537   36.5933   17.3686 H   0  0  0  0  0  0
   38.0345   35.9489   19.4818 F   0  0  0  0  0  0
   34.7253   35.5511   16.3957 H   0  0  0  0  0  0
   36.0922   36.6556   14.6878 H   0  0  0  0  0  0
  1  7  1  0  0  0
  1 10  2  0  0  0
  1 11  1  0  0  0
  2  9  1  0  0  0
  2 12  2  0  0  0
  2 13  1  0  0  0
  3  4  1  0  0  0
  3  5  2  0  0  0
  3  6  1  0  0  0
  4  7  2  0  0  0
  4 14  1  0  0  0
  5 11  1  0  0  0
  5 12  1  0  0  0
  6  9  2  0  0  0
  6 15  1  0  0  0
  7 35  1  0  0  0
  8 11  1  0  0  0
  8 16  1  0  0  0
  8 17  1  0  0  0
  8 18  1  0  0  0
 13 19  1  0  0  0
 13 22  1  0  0  0
 20 21  1  0  0  0
 20 25  1  0  0  0
 20 26  1  0  0  0
 20 27  1  0  0  0
 21 22  1  0  0  0
 21 28  1  0  0  0
 21 29  1  0  0  0
 22 23  1  0  0  0
 22 30  1  0  0  0
 23 24  1  0  0  0
 23 31  1  0  0  0
 23 32  1  0  0  0
 24 25  1  0  0  0
 24 33  1  0  0  0
 24 34  1  0  0  0
 35 39  1  0  0  0
 36 37  1  0  0  0
 36 41  2  0  0  0
 36 42  1  0  0  0
 37 38  2  0  0  0
 37 43  1  0  0  0
 38 39  1  0  0  0
 38 44  1  0  0  0
 39 40  2  0  0  0
 40 41  1  0  0  0
 40 45  1  0  0  0
 41 46  1  0  0  0
M  END
> <s_m_entry_id>
848

> <s_m_Source_Path>
/projects/mai/users/kmzp800_harry/pmx_colab/docking_jobs/p38/glide-dock_SP_p38_mcs_docking_2

> <s_m_Source_File>
glide-dock_SP_p38_mcs_docking_2_pv.maegz

> <i_m_Source_File_Index>
32

> <s_pdb_PDB_TITLE>
MX MODEL

> <r_i_docking_score>
-6.29703477739063

> <r_i_glide_gscore>
-6.29703477739063

> <r_i_glide_emodel>
-40.3531564455145

$$$$
lig_p38a_2j
                    3D
 Schrodinger Suite 2021-4.
 48 51  0  0  1  0            999 V2000
   34.3878   34.7495   15.3178 C   0  0  0  0  0  0
   34.5431   35.0129   21.1772 C   0  0  0  0  0  0
   35.2742   34.9253   16.3893 C   0  0  0  0  0  0
   34.0319   38.9912   23.7327 C   0  0  0  0  0  0
   34.8233   37.8511   21.4499 C   0  0  0  0  0  0
   35.2755   37.1657   20.2478 C   0  0  0  0  0  0
   32.5511   35.3625   16.7656 C   0  0  0  0  0  0
   33.3981   35.3826   17.8800 C   0  0  0  0  0  0
   34.3204   37.0683   22.5079 C   0  0  0  0  0  0
   34.8641   39.2498   21.6263 C   0  0  0  0  0  0
   35.1710   35.8142   20.1283 C   0  0  0  0  0  0
   34.7743   35.1639   17.6924 C   0  0  0  0  0  0
   33.6870   34.8531   23.4522 C   0  0  0  0  0  0
   36.6027   34.7740   16.1779 F   0  0  0  0  0  0
   35.6933   35.1489   18.8881 C   0  0  0  0  0  0
   34.4734   39.8218   22.7869 N   0  0  0  0  0  0
   34.3024   33.8186   21.0074 O   0  0  0  0  0  0
   34.2319   35.6485   22.3400 N   0  0  0  0  0  0
   33.9304   37.6686   23.6439 N   0  0  0  0  0  0
   33.6566   39.5505   24.9301 N   0  0  0  0  0  0
   34.7558   34.4921   14.3373 H   0  0  0  0  0  0
   35.7216   37.7785   19.4672 H   0  0  0  0  0  0
   31.5019   35.5456   16.9203 H   0  0  0  0  0  0
   32.9619   35.5542   18.8548 H   0  0  0  0  0  0
   35.2254   39.9065   20.8482 H   0  0  0  0  0  0
   34.0473   35.2135   24.4147 H   0  0  0  0  0  0
   32.5993   34.9152   23.4568 H   0  0  0  0  0  0
   33.9571   33.7972   23.4158 H   0  0  0  0  0  0
   33.7521   40.5565   25.0304 H   0  0  0  0  0  0
   35.7523   34.0982   19.1339 H   0  0  0  0  0  0
   36.6804   35.5493   18.6313 H   0  0  0  0  0  0
   33.0210   34.9937   15.4956 C   0  0  0  0  0  0
   32.1634   34.8888   14.4523 F   0  0  0  0  0  0
   33.4203   38.1023   28.4351 C   0  0  0  0  0  0
   34.0088   38.9374   27.2883 C   0  0  0  0  0  0
   33.1314   38.7760   26.0429 C   0  0  0  0  0  0
   31.6868   39.1764   26.3482 C   0  0  0  0  0  0
   31.1596   38.3289   27.5187 C   0  0  0  0  0  0
   32.0290   38.4881   28.6859 O   0  0  0  0  0  0
   35.0174   38.5922   27.0807 H   0  0  0  0  0  0
   34.0712   39.9863   27.5822 H   0  0  0  0  0  0
   33.1180   37.7137   25.8071 H   0  0  0  0  0  0
   31.6306   40.2403   26.6026 H   0  0  0  0  0  0
   31.0557   39.0137   25.4812 H   0  0  0  0  0  0
   31.1197   37.2692   27.2551 H   0  0  0  0  0  0
   30.1658   38.6448   27.8071 H   0  0  0  0  0  0
   33.4393   37.0327   28.1949 H   0  0  0  0  0  0
   33.9767   38.2529   29.3472 H   0  0  0  0  0  0
  1  3  1  0  0  0
  1 21  1  0  0  0
  1 32  2  0  0  0
  2 11  1  0  0  0
  2 17  2  0  0  0
  2 18  1  0  0  0
  3 12  2  0  0  0
  3 14  1  0  0  0
  4 16  1  0  0  0
  4 19  2  0  0  0
  4 20  1  0  0  0
  5  6  1  0  0  0
  5  9  2  0  0  0
  5 10  1  0  0  0
  6 11  2  0  0  0
  6 22  1  0  0  0
  7  8  2  0  0  0
  7 23  1  0  0  0
  7 32  1  0  0  0
  8 12  1  0  0  0
  8 24  1  0  0  0
  9 18  1  0  0  0
  9 19  1  0  0  0
 10 16  2  0  0  0
 10 25  1  0  0  0
 11 15  1  0  0  0
 12 15  1  0  0  0
 13 18  1  0  0  0
 13 26  1  0  0  0
 13 27  1  0  0  0
 13 28  1  0  0  0
 15 30  1  0  0  0
 15 31  1  0  0  0
 20 29  1  0  0  0
 20 36  1  0  0  0
 32 33  1  0  0  0
 34 35  1  0  0  0
 34 39  1  0  0  0
 34 47  1  0  0  0
 34 48  1  0  0  0
 35 36  1  0  0  0
 35 40  1  0  0  0
 35 41  1  0  0  0
 36 37  1  0  0  0
 36 42  1  0  0  0
 37 38  1  0  0  0
 37 43  1  0  0  0
 37 44  1  0  0  0
 38 39  1  0  0  0
 38 45  1  0  0  0
 38 46  1  0  0  0
M  END
> <s_m_entry_id>
849

> <s_m_Source_Path>
/projects/mai/users/kmzp800_harry/pmx_colab/docking_jobs/p38/glide-dock_SP_p38_mcs_docking_2

> <s_m_Source_File>
glide-dock_SP_p38_mcs_docking_2_pv.maegz

> <i_m_Source_File_Index>
33

> <s_pdb_PDB_TITLE>
MX MODEL

> <r_i_docking_score>
-5.98859861731025

> <r_i_glide_gscore>
-5.98859861731025

> <r_i_glide_emodel>
-28.7474190027841

$$$$
lig_p38a_2i
                    3D
 Schrodinger Suite 2021-4.
 48 51  0  0  1  0            999 V2000
   34.5160   34.7494   15.2901 C   0  0  0  0  0  0
   34.5390   35.0072   21.1833 C   0  0  0  0  0  0
   35.3407   34.9922   16.3939 C   0  0  0  0  0  0
   34.0425   38.9864   23.7391 C   0  0  0  0  0  0
   34.8331   37.8446   21.4536 C   0  0  0  0  0  0
   35.2763   37.1630   20.2567 C   0  0  0  0  0  0
   33.1199   34.8237   15.4177 C   0  0  0  0  0  0
   32.5564   35.1495   16.6579 C   0  0  0  0  0  0
   33.3680   35.2704   17.8016 C   0  0  0  0  0  0
   34.3224   37.0608   22.5052 C   0  0  0  0  0  0
   34.8779   39.2397   21.6413 C   0  0  0  0  0  0
   35.1594   35.8283   20.1325 C   0  0  0  0  0  0
   34.7659   35.1678   17.6713 C   0  0  0  0  0  0
   33.7106   34.8559   23.4759 C   0  0  0  0  0  0
   36.6862   34.9190   16.2425 F   0  0  0  0  0  0
   35.6599   35.1481   18.8888 C   0  0  0  0  0  0
   34.4891   39.8156   22.7985 N   0  0  0  0  0  0
   34.2976   33.8153   21.0067 O   0  0  0  0  0  0
   34.2306   35.6437   22.3466 N   0  0  0  0  0  0
   33.9368   37.6661   23.6372 N   0  0  0  0  0  0
   33.6632   39.5493   24.9357 N   0  0  0  0  0  0
   34.9501   34.5280   14.3313 H   0  0  0  0  0  0
   35.7383   37.7539   19.4776 H   0  0  0  0  0  0
   31.4852   35.2737   16.7528 H   0  0  0  0  0  0
   32.9002   35.4468   18.7587 H   0  0  0  0  0  0
   35.2486   39.8928   20.8702 H   0  0  0  0  0  0
   34.0920   35.2307   24.4249 H   0  0  0  0  0  0
   32.6241   34.9352   23.5038 H   0  0  0  0  0  0
   33.9829   33.7981   23.4413 H   0  0  0  0  0  0
   33.7523   40.5492   25.0500 H   0  0  0  0  0  0
   32.4866   34.6793   14.5543 H   0  0  0  0  0  0
   35.7525   34.0979   19.1188 H   0  0  0  0  0  0
   36.6448   35.5486   18.6496 H   0  0  0  0  0  0
   33.4229   38.1159   28.4346 C   0  0  0  0  0  0
   34.0088   38.9403   27.2902 C   0  0  0  0  0  0
   33.1325   38.7725   26.0501 C   0  0  0  0  0  0
   31.6916   39.1775   26.3508 C   0  0  0  0  0  0
   31.1586   38.3302   27.5209 C   0  0  0  0  0  0
   32.0285   38.4932   28.6836 O   0  0  0  0  0  0
   33.4722   37.0497   28.2022 H   0  0  0  0  0  0
   34.0034   38.2633   29.3449 H   0  0  0  0  0  0
   35.0339   38.6240   27.0865 H   0  0  0  0  0  0
   34.0545   39.9889   27.5863 H   0  0  0  0  0  0
   33.1141   37.7092   25.8233 H   0  0  0  0  0  0
   31.6449   40.2355   26.6155 H   0  0  0  0  0  0
   31.0568   39.0439   25.4733 H   0  0  0  0  0  0
   31.1022   37.2772   27.2454 H   0  0  0  0  0  0
   30.1523   38.6470   27.7918 H   0  0  0  0  0  0
  1  3  1  0  0  0
  1  7  2  0  0  0
  1 22  1  0  0  0
  2 12  1  0  0  0
  2 18  2  0  0  0
  2 19  1  0  0  0
  3 13  2  0  0  0
  3 15  1  0  0  0
  4 17  1  0  0  0
  4 20  2  0  0  0
  4 21  1  0  0  0
  5  6  1  0  0  0
  5 10  2  0  0  0
  5 11  1  0  0  0
  6 12  2  0  0  0
  6 23  1  0  0  0
  7  8  1  0  0  0
  7 31  1  0  0  0
  8  9  2  0  0  0
  8 24  1  0  0  0
  9 13  1  0  0  0
  9 25  1  0  0  0
 10 19  1  0  0  0
 10 20  1  0  0  0
 11 17  2  0  0  0
 11 26  1  0  0  0
 12 16  1  0  0  0
 13 16  1  0  0  0
 14 19  1  0  0  0
 14 27  1  0  0  0
 14 28  1  0  0  0
 14 29  1  0  0  0
 16 32  1  0  0  0
 16 33  1  0  0  0
 21 30  1  0  0  0
 21 36  1  0  0  0
 34 35  1  0  0  0
 34 39  1  0  0  0
 34 40  1  0  0  0
 34 41  1  0  0  0
 35 36  1  0  0  0
 35 42  1  0  0  0
 35 43  1  0  0  0
 36 37  1  0  0  0
 36 44  1  0  0  0
 37 38  1  0  0  0
 37 45  1  0  0  0
 37 46  1  0  0  0
 38 39  1  0  0  0
 38 47  1  0  0  0
 38 48  1  0  0  0
M  END
> <s_m_entry_id>
850

> <s_m_Source_Path>
/projects/mai/users/kmzp800_harry/pmx_colab/docking_jobs/p38/glide-dock_SP_p38_mcs_docking_2

> <s_m_Source_File>
glide-dock_SP_p38_mcs_docking_2_pv.maegz

> <i_m_Source_File_Index>
34

> <s_pdb_PDB_TITLE>
MX MODEL

> <r_i_docking_score>
-5.83373580995243

> <r_i_glide_gscore>
-5.83373580995243

> <r_i_glide_emodel>
-29.6064978504771

$$$$
