lig_p38a_2l
                    3D
 Schrodinger Suite 2021-4.
 49 52  0  0  1  0            999 V2000
   38.5723   36.1621   15.8903 F   0  0  0  0  0  0
   37.5614   35.9495   16.7524 C   0  0  0  0  0  0
   36.3100   35.5497   16.2593 C   0  0  0  0  0  0
   35.2317   35.3835   17.1436 C   0  0  0  0  0  0
   34.0364   34.9778   16.6577 F   0  0  0  0  0  0
   35.3835   35.6376   18.5204 C   0  0  0  0  0  0
   36.6613   35.9981   19.0194 C   0  0  0  0  0  0
   37.7477   36.1509   18.1344 C   0  0  0  0  0  0
   34.2720   35.4827   19.3140 O   0  0  0  0  0  0
   34.2412   36.0653   20.5506 C   0  0  0  0  0  0
   34.2309   37.4060   20.6887 C   0  0  0  0  0  0
   34.2034   35.1676   21.7054 C   0  0  0  0  0  0
   34.2292   33.9484   21.5547 O   0  0  0  0  0  0
   34.1731   35.7444   22.9416 N   0  0  0  0  0  0
   34.1368   34.8691   24.1327 C   0  0  0  0  0  0
   35.5493   34.5545   24.6521 C   0  0  0  0  0  0
   34.1838   37.1658   23.1384 C   0  0  0  0  0  0
   34.2048   38.0125   22.0114 C   0  0  0  0  0  0
   34.1719   37.7102   24.3698 N   0  0  0  0  0  0
   34.1377   39.0336   24.4879 C   0  0  0  0  0  0
   34.1531   39.9143   23.4890 N   0  0  0  0  0  0
   34.1932   39.4036   22.2398 C   0  0  0  0  0  0
   34.0714   39.5491   25.7665 N   0  0  0  0  0  0
   34.2151   38.7542   26.9863 C   0  0  0  0  0  0
   34.5714   39.6408   28.1885 C   0  0  0  0  0  0
   33.3501   40.4399   28.6701 C   0  0  0  0  0  0
   32.2858   39.5491   28.9877 O   0  0  0  0  0  0
   31.8179   38.8265   27.8555 C   0  0  0  0  0  0
   32.9494   37.9353   27.3189 C   0  0  0  0  0  0
   36.1729   35.3803   15.2024 H   0  0  0  0  0  0
   36.8224   36.1703   20.0727 H   0  0  0  0  0  0
   38.7171   36.4470   18.5082 H   0  0  0  0  0  0
   34.2531   38.0563   19.8270 H   0  0  0  0  0  0
   33.5505   35.3279   24.9310 H   0  0  0  0  0  0
   33.6138   33.9310   23.9295 H   0  0  0  0  0  0
   35.5049   33.8911   25.5170 H   0  0  0  0  0  0
   36.1512   34.0583   23.8896 H   0  0  0  0  0  0
   36.0687   35.4661   24.9552 H   0  0  0  0  0  0
   34.2087   40.1098   21.4222 H   0  0  0  0  0  0
   34.0321   40.5620   25.8506 H   0  0  0  0  0  0
   35.0419   38.0622   26.8217 H   0  0  0  0  0  0
   34.9240   39.0100   29.0065 H   0  0  0  0  0  0
   35.3953   40.3120   27.9432 H   0  0  0  0  0  0
   33.6041   41.0188   29.5579 H   0  0  0  0  0  0
   33.0289   41.1493   27.9051 H   0  0  0  0  0  0
   30.9645   38.2153   28.1530 H   0  0  0  0  0  0
   31.4607   39.5164   27.0884 H   0  0  0  0  0  0
   32.6006   37.3646   26.4596 H   0  0  0  0  0  0
   33.1983   37.1980   28.0831 H   0  0  0  0  0  0
  1  2  1  0  0  0
  2  8  1  0  0  0
  2  3  2  0  0  0
  3  4  1  0  0  0
  3 30  1  0  0  0
  4  5  1  0  0  0
  4  6  2  0  0  0
  6  7  1  0  0  0
  6  9  1  0  0  0
  7  8  2  0  0  0
  7 31  1  0  0  0
  8 32  1  0  0  0
  9 10  1  0  0  0
 10 11  2  0  0  0
 10 12  1  0  0  0
 11 18  1  0  0  0
 11 33  1  0  0  0
 12 13  2  0  0  0
 12 14  1  0  0  0
 14 15  1  0  0  0
 14 17  1  0  0  0
 15 16  1  0  0  0
 15 34  1  0  0  0
 15 35  1  0  0  0
 16 36  1  0  0  0
 16 37  1  0  0  0
 16 38  1  0  0  0
 17 18  1  0  0  0
 17 19  2  0  0  0
 18 22  2  0  0  0
 19 20  1  0  0  0
 20 21  2  0  0  0
 20 23  1  0  0  0
 21 22  1  0  0  0
 22 39  1  0  0  0
 23 24  1  0  0  0
 23 40  1  0  0  0
 24 29  1  0  0  0
 24 25  1  0  0  0
 24 41  1  0  0  0
 25 26  1  0  0  0
 25 42  1  0  0  0
 25 43  1  0  0  0
 26 27  1  0  0  0
 26 44  1  0  0  0
 26 45  1  0  0  0
 27 28  1  0  0  0
 28 29  1  0  0  0
 28 46  1  0  0  0
 28 47  1  0  0  0
 29 48  1  0  0  0
 29 49  1  0  0  0
M  END
> <s_m_entry_id>
717

> <i_f3d_flags>
0

> <r_lp_tautomer_probability>
1

> <r_epik_Ionization_Penalty>
  0.0000

> <r_epik_State_Penalty>
  0.0000

> <i_epik_Tot_Q>
0

> <s_m_job_name>
glide-dock_SP_p38_all_ligs_no_cons_10_poses

> <r_i_docking_score>
-7.46739443202349

> <r_i_glide_gscore>
-7.46739443202349

> <r_i_glide_emodel>
-60.4053103468383

$$$$
lig_p38a_3fmh
                    3D
 Schrodinger Suite 2021-4.
 46 49  0  0  1  0            999 V2000
   32.9461   34.3488   14.4710 F   0  0  0  0  0  0
   33.6355   34.7405   15.5683 C   0  0  0  0  0  0
   32.9523   35.1493   16.7224 C   0  0  0  0  0  0
   33.6465   35.5235   17.8894 C   0  0  0  0  0  0
   32.9178   35.9085   18.9645 F   0  0  0  0  0  0
   35.0703   35.5376   17.8872 C   0  0  0  0  0  0
   35.7455   35.1679   16.7030 C   0  0  0  0  0  0
   35.0385   34.7492   15.5623 C   0  0  0  0  0  0
   35.8739   35.8782   18.9546 O   0  0  0  0  0  0
   35.3261   36.3108   20.1290 C   0  0  0  0  0  0
   34.7972   35.3318   21.0887 C   0  0  0  0  0  0
   34.7494   34.1306   20.8092 O   0  0  0  0  0  0
   34.3504   35.8260   22.2847 N   0  0  0  0  0  0
   33.8588   34.8804   23.2994 C   0  0  0  0  0  0
   35.3188   37.6277   20.3832 C   0  0  0  0  0  0
   34.7756   38.1387   21.6260 C   0  0  0  0  0  0
   34.2849   37.2317   22.5879 C   0  0  0  0  0  0
   34.7050   39.5081   21.9198 C   0  0  0  0  0  0
   34.2197   39.9495   23.0912 N   0  0  0  0  0  0
   33.7771   39.0365   23.9435 C   0  0  0  0  0  0
   33.7775   37.7140   23.7500 N   0  0  0  0  0  0
   33.2882   39.5484   25.1294 N   0  0  0  0  0  0
   32.5851   38.7606   26.1353 C   0  0  2  0  0  0
   31.1030   38.5914   25.7468 C   0  0  0  0  0  0
   32.7871   39.3790   27.5352 C   0  0  0  0  0  0
   32.2195   38.5874   28.6166 N   0  0  3  0  0  0
   31.7445   39.1493   29.7421 N   0  0  0  0  0  0
   31.3625   38.0643   30.3948 C   0  0  0  0  0  0
   31.6571   36.8986   29.7512 N   0  0  0  0  0  0
   32.2192   37.2367   28.6361 N   0  0  0  0  0  0
   33.0399   37.7689   26.1571 H   0  0  0  0  0  0
   31.8732   35.1500   16.7302 H   0  0  0  0  0  0
   36.8255   35.1830   16.6812 H   0  0  0  0  0  0
   35.5758   34.4237   14.6889 H   0  0  0  0  0  0
   34.3221   33.8941   23.2307 H   0  0  0  0  0  0
   34.0625   35.2318   24.3111 H   0  0  0  0  0  0
   32.7803   34.7534   23.1978 H   0  0  0  0  0  0
   35.7240   38.3327   19.6718 H   0  0  0  0  0  0
   35.0428   40.2537   21.2212 H   0  0  0  0  0  0
   33.3683   40.5500   25.2676 H   0  0  0  0  0  0
   30.5548   37.9995   26.4806 H   0  0  0  0  0  0
   30.5996   39.5539   25.6527 H   0  0  0  0  0  0
   31.0072   38.0791   24.7894 H   0  0  0  0  0  0
   32.3454   40.3764   27.5691 H   0  0  0  0  0  0
   33.8512   39.4996   27.7415 H   0  0  0  0  0  0
   30.8874   38.1097   31.3638 H   0  0  0  0  0  0
  1  2  1  0  0  0
  2  8  1  0  0  0
  2  3  2  0  0  0
  3  4  1  0  0  0
  3 32  1  0  0  0
  4  5  1  0  0  0
  4  6  2  0  0  0
  6  7  1  0  0  0
  6  9  1  0  0  0
  7  8  2  0  0  0
  7 33  1  0  0  0
  8 34  1  0  0  0
  9 10  1  0  0  0
 10 11  1  0  0  0
 10 15  2  0  0  0
 11 12  2  0  0  0
 11 13  1  0  0  0
 13 17  1  0  0  0
 13 14  1  0  0  0
 14 35  1  0  0  0
 14 36  1  0  0  0
 14 37  1  0  0  0
 15 16  1  0  0  0
 15 38  1  0  0  0
 16 17  2  0  0  0
 16 18  1  0  0  0
 17 21  1  0  0  0
 18 19  2  0  0  0
 18 39  1  0  0  0
 19 20  1  0  0  0
 20 21  2  0  0  0
 20 22  1  0  0  0
 22 23  1  0  0  0
 22 40  1  0  0  0
 23 31  1  0  0  0
 23 24  1  0  0  0
 23 25  1  0  0  0
 24 41  1  0  0  0
 24 42  1  0  0  0
 24 43  1  0  0  0
 25 26  1  0  0  0
 25 44  1  0  0  0
 25 45  1  0  0  0
 26 30  1  0  0  0
 26 27  1  0  0  0
 27 28  2  0  0  0
 28 29  1  0  0  0
 28 46  1  0  0  0
 29 30  2  0  0  0
M  END
> <s_m_entry_id>
718

> <i_f3d_flags>
0

> <r_lp_tautomer_probability>
1

> <r_epik_Ionization_Penalty>
  0.0000

> <r_epik_State_Penalty>
  0.0000

> <i_epik_Tot_Q>
0

> <s_m_job_name>
glide-dock_SP_p38_all_ligs_no_cons_10_poses

> <r_i_docking_score>
-6.90016169096923

> <r_i_glide_gscore>
-6.90016169096923

> <r_i_glide_emodel>
-57.9375962266269

$$$$
lig_p38a_3fln
                    3D
 Schrodinger Suite 2021-4.
 46 49  0  0  1  0            999 V2000
   37.7521   35.5756   15.1813 F   0  0  0  0  0  0
   36.8446   35.5602   16.1811 C   0  0  0  0  0  0
   37.2293   35.9493   17.4745 C   0  0  0  0  0  0
   36.2949   35.9493   18.5289 C   0  0  0  0  0  0
   36.7265   36.3076   19.7620 F   0  0  0  0  0  0
   34.9510   35.5494   18.2847 C   0  0  0  0  0  0
   34.5840   35.1493   16.9832 C   0  0  0  0  0  0
   35.5223   35.1498   15.9342 C   0  0  0  0  0  0
   33.9524   35.4905   19.2304 O   0  0  0  0  0  0
   34.1196   36.0643   20.4588 C   0  0  0  0  0  0
   34.0225   37.3994   20.6058 C   0  0  0  0  0  0
   34.3744   35.1714   21.5923 C   0  0  0  0  0  0
   34.5416   33.9620   21.4213 O   0  0  0  0  0  0
   34.4480   35.7546   22.8254 N   0  0  0  0  0  0
   34.6960   34.9189   24.0120 C   0  0  0  0  0  0
   34.3259   37.1695   23.0370 C   0  0  0  0  0  0
   34.1455   38.0112   21.9203 C   0  0  0  0  0  0
   34.3665   37.7123   24.2723 N   0  0  0  0  0  0
   34.2294   39.0319   24.3972 C   0  0  0  0  0  0
   34.1305   39.9107   23.4007 N   0  0  0  0  0  0
   34.0797   39.3990   22.1528 C   0  0  0  0  0  0
   34.1522   39.5492   25.6755 N   0  0  0  0  0  0
   34.2658   38.7507   26.8959 C   0  0  0  0  0  0
   34.6148   39.6204   28.1141 C   0  0  0  0  0  0
   33.3945   40.4110   28.6159 C   0  0  0  0  0  0
   32.3142   39.5277   28.8923 O   0  0  0  0  0  0
   31.8592   38.8390   27.7338 C   0  0  0  0  0  0
   32.9871   37.9420   27.1979 C   0  0  0  0  0  0
   38.2486   36.2560   17.6619 H   0  0  0  0  0  0
   33.5659   34.8372   16.7918 H   0  0  0  0  0  0
   35.2239   34.8409   14.9435 H   0  0  0  0  0  0
   33.8224   38.0382   19.7585 H   0  0  0  0  0  0
   33.9409   35.1135   24.7745 H   0  0  0  0  0  0
   34.6782   33.8439   23.8288 H   0  0  0  0  0  0
   35.6700   35.1598   24.4392 H   0  0  0  0  0  0
   33.9597   40.1013   21.3406 H   0  0  0  0  0  0
   34.0416   40.5563   25.7591 H   0  0  0  0  0  0
   35.0898   38.0522   26.7423 H   0  0  0  0  0  0
   34.9643   38.9748   28.9206 H   0  0  0  0  0  0
   35.4401   40.2951   27.8830 H   0  0  0  0  0  0
   33.6473   40.9565   29.5252 H   0  0  0  0  0  0
   33.0838   41.1493   27.8793 H   0  0  0  0  0  0
   30.9930   38.2337   28.0020 H   0  0  0  0  0  0
   31.5257   39.5500   26.9759 H   0  0  0  0  0  0
   32.6462   37.3931   26.3201 H   0  0  0  0  0  0
   33.2173   37.1878   27.9512 H   0  0  0  0  0  0
  1  2  1  0  0  0
  2  8  1  0  0  0
  2  3  2  0  0  0
  3  4  1  0  0  0
  3 29  1  0  0  0
  4  5  1  0  0  0
  4  6  2  0  0  0
  6  7  1  0  0  0
  6  9  1  0  0  0
  7  8  2  0  0  0
  7 30  1  0  0  0
  8 31  1  0  0  0
  9 10  1  0  0  0
 10 11  2  0  0  0
 10 12  1  0  0  0
 11 17  1  0  0  0
 11 32  1  0  0  0
 12 13  2  0  0  0
 12 14  1  0  0  0
 14 15  1  0  0  0
 14 16  1  0  0  0
 15 33  1  0  0  0
 15 34  1  0  0  0
 15 35  1  0  0  0
 16 17  1  0  0  0
 16 18  2  0  0  0
 17 21  2  0  0  0
 18 19  1  0  0  0
 19 20  2  0  0  0
 19 22  1  0  0  0
 20 21  1  0  0  0
 21 36  1  0  0  0
 22 23  1  0  0  0
 22 37  1  0  0  0
 23 28  1  0  0  0
 23 24  1  0  0  0
 23 38  1  0  0  0
 24 25  1  0  0  0
 24 39  1  0  0  0
 24 40  1  0  0  0
 25 26  1  0  0  0
 25 41  1  0  0  0
 25 42  1  0  0  0
 26 27  1  0  0  0
 27 28  1  0  0  0
 27 43  1  0  0  0
 27 44  1  0  0  0
 28 45  1  0  0  0
 28 46  1  0  0  0
M  END
> <s_m_entry_id>
719

> <i_f3d_flags>
0

> <r_lp_tautomer_probability>
1

> <r_epik_Ionization_Penalty>
  0.0000

> <r_epik_State_Penalty>
  0.0000

> <i_epik_Tot_Q>
0

> <s_m_job_name>
glide-dock_SP_p38_all_ligs_no_cons_10_poses

> <r_i_docking_score>
-7.35925102538748

> <r_i_glide_gscore>
-7.35925102538748

> <r_i_glide_emodel>
-57.5714534965938

$$$$
lig_p38a_2j
                    3D
 Schrodinger Suite 2021-4.
 48 51  0  0  1  0            999 V2000
   36.5144   36.0939   20.2998 F   0  0  0  0  0  0
   36.5151   35.9495   18.9563 C   0  0  0  0  0  0
   37.7331   36.1285   18.2797 C   0  0  0  0  0  0
   37.7935   35.9503   16.8877 C   0  0  0  0  0  0
   38.9520   36.1648   16.2402 F   0  0  0  0  0  0
   36.6502   35.5775   16.1641 C   0  0  0  0  0  0
   35.4291   35.4017   16.8368 C   0  0  0  0  0  0
   35.3433   35.5926   18.2326 C   0  0  0  0  0  0
   33.9696   35.4180   18.8765 C   0  0  0  0  0  0
   33.8124   36.0273   20.2603 C   0  0  0  0  0  0
   33.8496   37.3635   20.4174 C   0  0  0  0  0  0
   33.6955   35.1275   21.4204 C   0  0  0  0  0  0
   33.7221   33.9029   21.2927 O   0  0  0  0  0  0
   33.5836   35.7179   22.6474 N   0  0  0  0  0  0
   33.4036   34.8806   23.8467 C   0  0  0  0  0  0
   33.6689   37.1346   22.8529 C   0  0  0  0  0  0
   33.8158   37.9737   21.7326 C   0  0  0  0  0  0
   33.6257   37.6824   24.0854 N   0  0  0  0  0  0
   33.7628   39.0034   24.1962 C   0  0  0  0  0  0
   33.9667   39.8681   23.2046 N   0  0  0  0  0  0
   33.9777   39.3541   21.9591 C   0  0  0  0  0  0
   33.6574   39.5492   25.4560 N   0  0  0  0  0  0
   33.0840   38.8589   26.6060 C   0  0  0  0  0  0
   33.3650   39.6225   27.9069 C   0  0  0  0  0  0
   32.7190   38.8957   29.0965 C   0  0  0  0  0  0
   31.3181   38.7498   28.8814 O   0  0  0  0  0  0
   30.9970   37.9805   27.7272 C   0  0  0  0  0  0
   31.5641   38.6548   26.4680 C   0  0  0  0  0  0
   38.6235   36.4066   18.8260 H   0  0  0  0  0  0
   36.7085   35.4507   15.0945 H   0  0  0  0  0  0
   34.5460   35.1361   16.2723 H   0  0  0  0  0  0
   33.2292   35.8946   18.2343 H   0  0  0  0  0  0
   33.7075   34.3598   18.8662 H   0  0  0  0  0  0
   33.9602   38.0140   19.5625 H   0  0  0  0  0  0
   34.1443   35.1347   24.6070 H   0  0  0  0  0  0
   32.4134   35.0590   24.2719 H   0  0  0  0  0  0
   33.4924   33.8060   23.6781 H   0  0  0  0  0  0
   34.1276   40.0454   21.1423 H   0  0  0  0  0  0
   33.7386   40.5610   25.5079 H   0  0  0  0  0  0
   33.5626   37.8806   26.6828 H   0  0  0  0  0  0
   34.4401   39.7146   28.0677 H   0  0  0  0  0  0
   32.9676   40.6362   27.8434 H   0  0  0  0  0  0
   33.1747   37.9163   29.2474 H   0  0  0  0  0  0
   32.8745   39.4644   30.0134 H   0  0  0  0  0  0
   31.3870   36.9672   27.8350 H   0  0  0  0  0  0
   29.9120   37.8963   27.6537 H   0  0  0  0  0  0
   31.0702   39.6142   26.3174 H   0  0  0  0  0  0
   31.3314   38.0440   25.5959 H   0  0  0  0  0  0
  1  2  1  0  0  0
  2  8  1  0  0  0
  2  3  2  0  0  0
  3  4  1  0  0  0
  3 29  1  0  0  0
  4  5  1  0  0  0
  4  6  2  0  0  0
  6  7  1  0  0  0
  6 30  1  0  0  0
  7  8  2  0  0  0
  7 31  1  0  0  0
  8  9  1  0  0  0
  9 10  1  0  0  0
  9 32  1  0  0  0
  9 33  1  0  0  0
 10 11  2  0  0  0
 10 12  1  0  0  0
 11 17  1  0  0  0
 11 34  1  0  0  0
 12 13  2  0  0  0
 12 14  1  0  0  0
 14 15  1  0  0  0
 14 16  1  0  0  0
 15 35  1  0  0  0
 15 36  1  0  0  0
 15 37  1  0  0  0
 16 17  1  0  0  0
 16 18  2  0  0  0
 17 21  2  0  0  0
 18 19  1  0  0  0
 19 20  2  0  0  0
 19 22  1  0  0  0
 20 21  1  0  0  0
 21 38  1  0  0  0
 22 23  1  0  0  0
 22 39  1  0  0  0
 23 28  1  0  0  0
 23 24  1  0  0  0
 23 40  1  0  0  0
 24 25  1  0  0  0
 24 41  1  0  0  0
 24 42  1  0  0  0
 25 26  1  0  0  0
 25 43  1  0  0  0
 25 44  1  0  0  0
 26 27  1  0  0  0
 27 28  1  0  0  0
 27 45  1  0  0  0
 27 46  1  0  0  0
 28 47  1  0  0  0
 28 48  1  0  0  0
M  END
> <s_m_entry_id>
720

> <i_f3d_flags>
0

> <r_lp_tautomer_probability>
1

> <r_epik_Ionization_Penalty>
  0.0000

> <r_epik_State_Penalty>
  0.0000

> <i_epik_Tot_Q>
0

> <s_m_job_name>
glide-dock_SP_p38_all_ligs_no_cons_10_poses

> <r_i_docking_score>
-7.69128914265391

> <r_i_glide_gscore>
-7.69128914265391

> <r_i_glide_emodel>
-59.6907994617252

$$$$
lig_p38a_2z
                    3D
 Schrodinger Suite 2021-4.
 45 47  0  0  1  0            999 V2000
   38.1512   35.6193   15.4891 F   0  0  0  0  0  0
   37.1057   35.5806   16.3347 C   0  0  0  0  0  0
   35.8409   35.1604   15.8891 C   0  0  0  0  0  0
   34.7513   35.1493   16.7733 C   0  0  0  0  0  0
   33.5410   34.7500   16.3212 F   0  0  0  0  0  0
   34.9152   35.5493   18.1152 C   0  0  0  0  0  0
   36.2006   35.9493   18.5638 C   0  0  0  0  0  0
   37.2912   35.9495   17.6757 C   0  0  0  0  0  0
   33.8026   35.5176   18.9238 O   0  0  0  0  0  0
   33.8888   36.0563   20.1749 C   0  0  0  0  0  0
   33.7863   37.3883   20.3340 C   0  0  0  0  0  0
   34.1405   35.1508   21.2996 C   0  0  0  0  0  0
   34.3496   33.9493   21.1189 O   0  0  0  0  0  0
   34.1780   35.7196   22.5395 N   0  0  0  0  0  0
   34.4040   34.8553   23.7103 C   0  0  0  0  0  0
   34.0739   37.1359   22.7588 C   0  0  0  0  0  0
   33.9130   37.9892   21.6494 C   0  0  0  0  0  0
   34.1488   37.6756   23.9900 N   0  0  0  0  0  0
   34.1073   38.9981   24.1236 C   0  0  0  0  0  0
   34.0285   39.8832   23.1314 N   0  0  0  0  0  0
   33.9122   39.3783   21.8854 C   0  0  0  0  0  0
   34.1535   39.5287   25.3987 N   0  0  0  0  0  0
   34.1596   38.8080   26.6798 C   0  0  0  0  0  0
   32.8168   38.0775   26.9080 C   0  0  0  0  0  0
   35.3236   37.7959   26.7836 C   0  0  0  0  0  0
   34.4122   39.8354   27.8010 C   0  0  0  0  0  0
   33.3511   40.7486   27.8954 O   0  0  0  0  0  0
   35.6898   34.8405   14.8712 H   0  0  0  0  0  0
   36.3750   36.2570   19.5840 H   0  0  0  0  0  0
   38.2677   36.2639   18.0169 H   0  0  0  0  0  0
   33.6077   38.0351   19.4892 H   0  0  0  0  0  0
   34.0881   33.8223   23.5568 H   0  0  0  0  0  0
   35.4630   34.8473   23.9688 H   0  0  0  0  0  0
   33.8491   35.2058   24.5810 H   0  0  0  0  0  0
   33.8188   40.0873   21.0759 H   0  0  0  0  0  0
   34.1069   40.5395   25.4543 H   0  0  0  0  0  0
   32.7777   37.6282   27.9008 H   0  0  0  0  0  0
   31.9674   38.7571   26.8241 H   0  0  0  0  0  0
   32.6610   37.2754   26.1868 H   0  0  0  0  0  0
   35.3522   37.3572   27.7815 H   0  0  0  0  0  0
   35.2376   36.9534   26.1009 H   0  0  0  0  0  0
   36.2838   38.2776   26.6008 H   0  0  0  0  0  0
   35.3425   40.3828   27.6409 H   0  0  0  0  0  0
   34.5006   39.3364   28.7673 H   0  0  0  0  0  0
   33.4134   41.3703   27.1775 H   0  0  0  0  0  0
  1  2  1  0  0  0
  2  8  1  0  0  0
  2  3  2  0  0  0
  3  4  1  0  0  0
  3 28  1  0  0  0
  4  5  1  0  0  0
  4  6  2  0  0  0
  6  7  1  0  0  0
  6  9  1  0  0  0
  7  8  2  0  0  0
  7 29  1  0  0  0
  8 30  1  0  0  0
  9 10  1  0  0  0
 10 11  2  0  0  0
 10 12  1  0  0  0
 11 17  1  0  0  0
 11 31  1  0  0  0
 12 13  2  0  0  0
 12 14  1  0  0  0
 14 15  1  0  0  0
 14 16  1  0  0  0
 15 32  1  0  0  0
 15 33  1  0  0  0
 15 34  1  0  0  0
 16 17  1  0  0  0
 16 18  2  0  0  0
 17 21  2  0  0  0
 18 19  1  0  0  0
 19 20  2  0  0  0
 19 22  1  0  0  0
 20 21  1  0  0  0
 21 35  1  0  0  0
 22 23  1  0  0  0
 22 36  1  0  0  0
 23 24  1  0  0  0
 23 25  1  0  0  0
 23 26  1  0  0  0
 24 37  1  0  0  0
 24 38  1  0  0  0
 24 39  1  0  0  0
 25 40  1  0  0  0
 25 41  1  0  0  0
 25 42  1  0  0  0
 26 27  1  0  0  0
 26 43  1  0  0  0
 26 44  1  0  0  0
 27 45  1  0  0  0
M  END
> <s_m_entry_id>
721

> <i_f3d_flags>
0

> <r_lp_tautomer_probability>
1

> <r_epik_Ionization_Penalty>
  0.0000

> <r_epik_State_Penalty>
  0.0000

> <i_epik_Tot_Q>
0

> <s_m_job_name>
glide-dock_SP_p38_all_ligs_no_cons_10_poses

> <r_i_docking_score>
-7.23369293670228

> <r_i_glide_gscore>
-7.23369293670228

> <r_i_glide_emodel>
-53.5069581719282

$$$$
lig_p38a_3fly
                    3D
 Schrodinger Suite 2021-4.
 41 43  0  0  1  0            999 V2000
   30.9521   38.9271   25.4581 C   0  0  0  0  0  0
   32.3490   38.8886   26.0988 C   0  0  0  0  0  0
   32.3494   39.5376   27.4887 C   0  0  0  0  0  0
   33.3309   39.5493   25.2515 N   0  0  0  0  0  0
   33.8126   39.0550   24.0595 C   0  0  0  0  0  0
   33.6529   37.7560   23.8015 N   0  0  0  0  0  0
   34.4134   39.9488   23.2782 N   0  0  0  0  0  0
   34.9072   39.4902   22.1141 C   0  0  0  0  0  0
   34.8014   38.1366   21.7481 C   0  0  0  0  0  0
   34.1493   37.2641   22.6427 C   0  0  0  0  0  0
   35.3521   37.5953   20.5187 C   0  0  0  0  0  0
   35.2592   36.2850   20.2387 C   0  0  0  0  0  0
   34.6034   35.3409   21.1584 C   0  0  0  0  0  0
   34.5521   34.1345   20.9047 O   0  0  0  0  0  0
   34.0557   35.8731   22.2935 N   0  0  0  0  0  0
   33.3598   34.9904   23.2434 C   0  0  0  0  0  0
   35.8504   35.8207   19.0935 O   0  0  0  0  0  0
   35.0829   35.5493   17.9811 C   0  0  0  0  0  0
   33.6705   35.4459   18.0066 C   0  0  0  0  0  0
   32.9613   35.1493   16.8289 C   0  0  0  0  0  0
   35.7521   35.3661   16.7513 C   0  0  0  0  0  0
   37.0932   35.5426   16.6793 F   0  0  0  0  0  0
   35.0415   34.9582   15.6057 C   0  0  0  0  0  0
   33.6422   34.8428   15.6425 C   0  0  0  0  0  0
   32.9521   34.4698   14.5395 F   0  0  0  0  0  0
   30.2082   38.4681   26.1101 H   0  0  0  0  0  0
   30.9327   38.3843   24.5127 H   0  0  0  0  0  0
   30.6329   39.9493   25.2563 H   0  0  0  0  0  0
   32.6435   37.8450   26.2190 H   0  0  0  0  0  0
   31.5943   39.0898   28.1354 H   0  0  0  0  0  0
   33.3159   39.4117   27.9775 H   0  0  0  0  0  0
   32.1521   40.6082   27.4294 H   0  0  0  0  0  0
   33.5092   40.5323   25.4335 H   0  0  0  0  0  0
   35.4099   40.2093   21.4891 H   0  0  0  0  0  0
   35.8533   38.2721   19.8423 H   0  0  0  0  0  0
   33.1177   34.0020   22.8509 H   0  0  0  0  0  0
   33.9719   34.8502   24.1350 H   0  0  0  0  0  0
   32.4127   35.4333   23.5544 H   0  0  0  0  0  0
   33.0985   35.6220   18.9043 H   0  0  0  0  0  0
   31.8821   35.1493   16.8541 H   0  0  0  0  0  0
   35.5640   34.7493   14.6891 H   0  0  0  0  0  0
  1  2  1  0  0  0
  1 26  1  0  0  0
  1 27  1  0  0  0
  1 28  1  0  0  0
  2  3  1  0  0  0
  2  4  1  0  0  0
  2 29  1  0  0  0
  3 30  1  0  0  0
  3 31  1  0  0  0
  3 32  1  0  0  0
  4  5  1  0  0  0
  4 33  1  0  0  0
  5  6  1  0  0  0
  5  7  2  0  0  0
  6 10  2  0  0  0
  7  8  1  0  0  0
  8  9  2  0  0  0
  8 34  1  0  0  0
  9 10  1  0  0  0
  9 11  1  0  0  0
 10 15  1  0  0  0
 11 12  2  0  0  0
 11 35  1  0  0  0
 12 13  1  0  0  0
 12 17  1  0  0  0
 13 14  2  0  0  0
 13 15  1  0  0  0
 15 16  1  0  0  0
 16 36  1  0  0  0
 16 37  1  0  0  0
 16 38  1  0  0  0
 17 18  1  0  0  0
 18 19  1  0  0  0
 18 21  2  0  0  0
 19 20  2  0  0  0
 19 39  1  0  0  0
 20 24  1  0  0  0
 20 40  1  0  0  0
 21 22  1  0  0  0
 21 23  1  0  0  0
 23 24  2  0  0  0
 23 41  1  0  0  0
 24 25  1  0  0  0
M  END
> <s_m_entry_id>
722

> <i_f3d_flags>
0

> <r_lp_tautomer_probability>
1

> <r_epik_Ionization_Penalty>
  0.0000

> <r_epik_State_Penalty>
  0.0000

> <i_epik_Tot_Q>
0

> <s_m_job_name>
glide-dock_SP_p38_all_ligs_no_cons_10_poses

> <r_i_docking_score>
-7.26920282959428

> <r_i_glide_gscore>
-7.26920282959428

> <r_i_glide_emodel>
-52.3979222679793

$$$$
lig_p38a_2gg
                    3D
 Schrodinger Suite 2021-4.
 48 51  0  0  1  0            999 V2000
   38.9519   35.9743   16.2891 F   0  0  0  0  0  0
   37.8188   35.9494   17.0139 C   0  0  0  0  0  0
   36.6101   35.5770   16.4016 C   0  0  0  0  0  0
   35.4287   35.5492   17.1620 C   0  0  0  0  0  0
   34.2772   35.1458   16.5764 F   0  0  0  0  0  0
   35.4421   35.8886   18.5298 C   0  0  0  0  0  0
   36.6679   36.2754   19.1334 C   0  0  0  0  0  0
   37.8474   36.3173   18.3721 C   0  0  0  0  0  0
   34.2544   35.7740   19.2189 O   0  0  0  0  0  0
   34.1924   36.2508   20.4972 C   0  0  0  0  0  0
   34.1439   37.5781   20.7028 C   0  0  0  0  0  0
   34.2300   35.2874   21.6034 C   0  0  0  0  0  0
   34.2878   34.0752   21.3899 O   0  0  0  0  0  0
   34.2327   35.8125   22.8672 N   0  0  0  0  0  0
   34.2990   34.9130   24.0316 C   0  0  0  0  0  0
   34.1898   37.2233   23.1371 C   0  0  0  0  0  0
   34.1522   38.1157   22.0462 C   0  0  0  0  0  0
   34.1921   37.7176   24.3955 N   0  0  0  0  0  0
   34.1509   39.0407   24.5534 C   0  0  0  0  0  0
   34.1518   39.9493   23.5837 N   0  0  0  0  0  0
   34.1455   39.4924   22.3203 C   0  0  0  0  0  0
   34.0816   39.5490   25.8322 N   0  0  0  0  0  0
   34.4370   38.8137   27.0455 C   0  0  0  0  0  0
   35.8732   39.1473   27.4900 C   0  0  0  0  0  0
   36.0617   40.6163   27.9032 C   0  0  0  0  0  0
   33.4002   39.0344   28.1648 C   0  0  0  0  0  0
   33.3379   40.4827   28.6658 C   0  0  0  0  0  0
   34.9653   41.0357   29.3067 S   0  0  0  0  0  0
   34.9537   42.4967   29.4753 O   0  0  0  0  0  0
   35.3298   40.1582   30.4302 O   0  0  0  0  0  0
   36.5930   35.3056   15.3577 H   0  0  0  0  0  0
   36.7287   36.5334   20.1794 H   0  0  0  0  0  0
   38.7813   36.6044   18.8311 H   0  0  0  0  0  0
   34.1280   38.2710   19.8754 H   0  0  0  0  0  0
   33.3964   35.0251   24.6339 H   0  0  0  0  0  0
   34.3969   33.8536   23.7938 H   0  0  0  0  0  0
   35.1523   35.1728   24.6593 H   0  0  0  0  0  0
   34.1321   40.2293   21.5309 H   0  0  0  0  0  0
   34.0465   40.5623   25.8893 H   0  0  0  0  0  0
   34.4170   37.7470   26.8265 H   0  0  0  0  0  0
   36.1475   38.5093   28.3309 H   0  0  0  0  0  0
   36.5662   38.8969   26.6870 H   0  0  0  0  0  0
   37.0873   40.8099   28.2139 H   0  0  0  0  0  0
   35.8261   41.3026   27.0897 H   0  0  0  0  0  0
   32.4130   38.7334   27.8126 H   0  0  0  0  0  0
   33.6318   38.3774   29.0048 H   0  0  0  0  0  0
   32.6052   40.5978   29.4656 H   0  0  0  0  0  0
   33.0425   41.1494   27.8598 H   0  0  0  0  0  0
  1  2  1  0  0  0
  2  8  1  0  0  0
  2  3  2  0  0  0
  3  4  1  0  0  0
  3 31  1  0  0  0
  4  5  1  0  0  0
  4  6  2  0  0  0
  6  7  1  0  0  0
  6  9  1  0  0  0
  7  8  2  0  0  0
  7 32  1  0  0  0
  8 33  1  0  0  0
  9 10  1  0  0  0
 10 11  2  0  0  0
 10 12  1  0  0  0
 11 17  1  0  0  0
 11 34  1  0  0  0
 12 13  2  0  0  0
 12 14  1  0  0  0
 14 15  1  0  0  0
 14 16  1  0  0  0
 15 35  1  0  0  0
 15 36  1  0  0  0
 15 37  1  0  0  0
 16 17  1  0  0  0
 16 18  2  0  0  0
 17 21  2  0  0  0
 18 19  1  0  0  0
 19 20  2  0  0  0
 19 22  1  0  0  0
 20 21  1  0  0  0
 21 38  1  0  0  0
 22 23  1  0  0  0
 22 39  1  0  0  0
 23 24  1  0  0  0
 23 26  1  0  0  0
 23 40  1  0  0  0
 24 25  1  0  0  0
 24 41  1  0  0  0
 24 42  1  0  0  0
 25 28  1  0  0  0
 25 43  1  0  0  0
 25 44  1  0  0  0
 26 27  1  0  0  0
 26 45  1  0  0  0
 26 46  1  0  0  0
 27 28  1  0  0  0
 27 47  1  0  0  0
 27 48  1  0  0  0
 28 29  2  0  0  0
 28 30  2  0  0  0
M  END
> <s_m_entry_id>
723

> <i_f3d_flags>
0

> <r_lp_tautomer_probability>
1

> <r_epik_Ionization_Penalty>
  0.0000

> <r_epik_State_Penalty>
  0.0000

> <i_epik_Tot_Q>
0

> <s_m_job_name>
glide-dock_SP_p38_all_ligs_no_cons_10_poses

> <r_i_docking_score>
-7.25944154297963

> <r_i_glide_gscore>
-7.25944154297963

> <r_i_glide_emodel>
-61.4715108357779

$$$$
lig_p38a_3flq
                    3D
 Schrodinger Suite 2021-4.
 47 49  0  0  1  0            999 V2000
   31.7146   39.5456   30.2584 O   0  0  0  0  0  0
   32.1903   38.6236   29.2175 S   0  0  0  0  0  0
   33.0552   37.4940   29.5871 O   0  0  0  0  0  0
   30.7201   37.9422   28.3462 C   0  0  0  0  0  0
   33.0044   39.6306   27.8936 C   0  0  0  0  0  0
   33.7330   38.7847   26.8270 C   0  0  2  0  0  0
   35.1279   38.3131   27.2866 C   0  0  0  0  0  0
   33.8541   39.5493   25.5916 N   0  0  0  0  0  0
   33.9992   39.0167   24.3283 C   0  0  0  0  0  0
   34.1518   39.8971   23.3387 N   0  0  0  0  0  0
   34.2506   39.3885   22.0928 C   0  0  0  0  0  0
   33.9573   37.6921   24.2081 N   0  0  0  0  0  0
   34.0582   37.1527   22.9747 C   0  0  0  0  0  0
   34.2013   38.0011   21.8568 C   0  0  0  0  0  0
   34.0280   35.7347   22.7669 N   0  0  0  0  0  0
   33.9052   34.8860   23.9635 C   0  0  0  0  0  0
   34.1367   35.1562   21.5354 C   0  0  0  0  0  0
   34.1612   33.9362   21.3813 O   0  0  0  0  0  0
   34.2595   36.0588   20.3891 C   0  0  0  0  0  0
   34.2898   37.3981   20.5356 C   0  0  0  0  0  0
   34.3304   35.4845   19.1487 O   0  0  0  0  0  0
   35.4643   35.6483   18.3891 C   0  0  0  0  0  0
   36.7326   35.9495   18.9463 C   0  0  0  0  0  0
   37.8545   36.0989   18.1080 C   0  0  0  0  0  0
   35.3524   35.4554   16.9964 C   0  0  0  0  0  0
   34.1619   35.1098   16.4534 F   0  0  0  0  0  0
   36.4718   35.6045   16.1608 C   0  0  0  0  0  0
   37.7156   35.9492   16.7149 C   0  0  0  0  0  0
   38.7681   36.1741   15.9039 F   0  0  0  0  0  0
   33.1178   37.9089   26.6166 H   0  0  0  0  0  0
   30.0809   37.4307   29.0682 H   0  0  0  0  0  0
   31.0357   37.2327   27.5828 H   0  0  0  0  0  0
   30.1521   38.7484   27.8859 H   0  0  0  0  0  0
   32.2187   40.2407   27.4459 H   0  0  0  0  0  0
   33.6940   40.3240   28.3765 H   0  0  0  0  0  0
   35.0850   37.6947   28.1809 H   0  0  0  0  0  0
   35.6167   37.7132   26.5185 H   0  0  0  0  0  0
   35.7796   39.1591   27.5060 H   0  0  0  0  0  0
   33.8762   40.5635   25.6576 H   0  0  0  0  0  0
   34.3662   40.0940   21.2834 H   0  0  0  0  0  0
   33.8195   33.8165   23.7639 H   0  0  0  0  0  0
   34.7748   35.0228   24.6082 H   0  0  0  0  0  0
   33.0197   35.1681   24.5343 H   0  0  0  0  0  0
   34.3750   38.0505   19.6788 H   0  0  0  0  0  0
   36.8595   36.0761   20.0116 H   0  0  0  0  0  0
   38.8186   36.3496   18.5283 H   0  0  0  0  0  0
   36.3688   35.4788   15.0932 H   0  0  0  0  0  0
  1  2  2  0  0  0
  2  3  2  0  0  0
  2  4  1  0  0  0
  2  5  1  0  0  0
  4 31  1  0  0  0
  4 32  1  0  0  0
  4 33  1  0  0  0
  5  6  1  0  0  0
  5 34  1  0  0  0
  5 35  1  0  0  0
  6 30  1  0  0  0
  6  7  1  0  0  0
  6  8  1  0  0  0
  7 36  1  0  0  0
  7 37  1  0  0  0
  7 38  1  0  0  0
  8  9  1  0  0  0
  8 39  1  0  0  0
  9 10  1  0  0  0
  9 12  2  0  0  0
 10 11  2  0  0  0
 11 14  1  0  0  0
 11 40  1  0  0  0
 12 13  1  0  0  0
 13 14  2  0  0  0
 13 15  1  0  0  0
 14 20  1  0  0  0
 15 16  1  0  0  0
 15 17  1  0  0  0
 16 41  1  0  0  0
 16 42  1  0  0  0
 16 43  1  0  0  0
 17 18  2  0  0  0
 17 19  1  0  0  0
 19 20  2  0  0  0
 19 21  1  0  0  0
 20 44  1  0  0  0
 21 22  1  0  0  0
 22 23  1  0  0  0
 22 25  2  0  0  0
 23 24  2  0  0  0
 23 45  1  0  0  0
 24 28  1  0  0  0
 24 46  1  0  0  0
 25 26  1  0  0  0
 25 27  1  0  0  0
 27 28  2  0  0  0
 27 47  1  0  0  0
 28 29  1  0  0  0
M  END
> <s_m_entry_id>
724

> <i_f3d_flags>
0

> <r_lp_tautomer_probability>
1

> <r_epik_Ionization_Penalty>
  0.0000

> <r_epik_State_Penalty>
  0.0000

> <i_epik_Tot_Q>
0

> <s_m_job_name>
glide-dock_SP_p38_all_ligs_no_cons_10_poses

> <r_i_docking_score>
-7.09784010841815

> <r_i_glide_gscore>
-7.09784010841815

> <r_i_glide_emodel>
-57.8983677890766

$$$$
lig_p38a_2k
                    3D
 Schrodinger Suite 2021-4.
 43 46  0  0  1  0            999 V2000
   38.9521   36.4582   15.9035 F   0  0  0  0  0  0
   37.9206   36.1522   16.7139 C   0  0  0  0  0  0
   38.0763   36.1938   18.1110 C   0  0  0  0  0  0
   36.9719   35.9493   18.9496 C   0  0  0  0  0  0
   37.1554   35.9493   20.2891 F   0  0  0  0  0  0
   35.7064   35.6405   18.3839 C   0  0  0  0  0  0
   35.5802   35.5493   16.9861 C   0  0  0  0  0  0
   36.6775   35.8212   16.1553 C   0  0  0  0  0  0
   34.5873   35.3441   19.1221 O   0  0  0  0  0  0
   34.3685   35.9755   20.3154 C   0  0  0  0  0  0
   34.4352   37.3222   20.4329 C   0  0  0  0  0  0
   34.0527   35.1212   21.4621 C   0  0  0  0  0  0
   34.0054   33.8968   21.3995 O   0  0  0  0  0  0
   33.8323   35.7576   22.6283 N   0  0  0  0  0  0
   33.9195   37.1520   22.8333 C   0  0  0  0  0  0
   34.2267   37.9675   21.7273 C   0  0  0  0  0  0
   33.7277   37.6854   24.0500 N   0  0  0  0  0  0
   33.8492   39.0062   24.1685 C   0  0  0  0  0  0
   34.1521   39.8701   23.1969 N   0  0  0  0  0  0
   34.3362   39.3511   21.9637 C   0  0  0  0  0  0
   33.6469   39.5493   25.4162 N   0  0  0  0  0  0
   33.0555   38.8515   26.5516 C   0  0  0  0  0  0
   33.2769   39.6372   27.8513 C   0  0  0  0  0  0
   32.6012   38.9209   29.0308 C   0  0  0  0  0  0
   31.2138   38.7493   28.7654 O   0  0  0  0  0  0
   30.9521   37.9493   27.6173 C   0  0  0  0  0  0
   31.5459   38.6169   26.3663 C   0  0  0  0  0  0
   33.6105   35.1945   23.4351 H   0  0  0  0  0  0
   39.0425   36.4105   18.5396 H   0  0  0  0  0  0
   34.6245   35.2976   16.5487 H   0  0  0  0  0  0
   36.5616   35.7909   15.0891 H   0  0  0  0  0  0
   34.6605   37.9488   19.5820 H   0  0  0  0  0  0
   34.5763   40.0412   21.1687 H   0  0  0  0  0  0
   33.7521   40.5575   25.4891 H   0  0  0  0  0  0
   33.5517   37.8849   26.6522 H   0  0  0  0  0  0
   32.8649   40.6436   27.7575 H   0  0  0  0  0  0
   34.3432   39.7527   28.0482 H   0  0  0  0  0  0
   32.7137   39.5105   29.9408 H   0  0  0  0  0  0
   33.0682   37.9528   29.2177 H   0  0  0  0  0  0
   29.8732   37.8376   27.5066 H   0  0  0  0  0  0
   31.3630   36.9483   27.7569 H   0  0  0  0  0  0
   31.3549   37.9916   25.4939 H   0  0  0  0  0  0
   31.0379   39.5653   26.1871 H   0  0  0  0  0  0
  1  2  1  0  0  0
  2  8  1  0  0  0
  2  3  2  0  0  0
  3  4  1  0  0  0
  3 29  1  0  0  0
  4  5  1  0  0  0
  4  6  2  0  0  0
  6  7  1  0  0  0
  6  9  1  0  0  0
  7  8  2  0  0  0
  7 30  1  0  0  0
  8 31  1  0  0  0
  9 10  1  0  0  0
 10 11  2  0  0  0
 10 12  1  0  0  0
 11 16  1  0  0  0
 11 32  1  0  0  0
 12 13  2  0  0  0
 12 14  1  0  0  0
 14 28  1  0  0  0
 14 15  1  0  0  0
 15 16  2  0  0  0
 15 17  1  0  0  0
 16 20  1  0  0  0
 17 18  2  0  0  0
 18 19  1  0  0  0
 18 21  1  0  0  0
 19 20  2  0  0  0
 20 33  1  0  0  0
 21 22  1  0  0  0
 21 34  1  0  0  0
 22 27  1  0  0  0
 22 23  1  0  0  0
 22 35  1  0  0  0
 23 24  1  0  0  0
 23 36  1  0  0  0
 23 37  1  0  0  0
 24 25  1  0  0  0
 24 38  1  0  0  0
 24 39  1  0  0  0
 25 26  1  0  0  0
 26 27  1  0  0  0
 26 40  1  0  0  0
 26 41  1  0  0  0
 27 42  1  0  0  0
 27 43  1  0  0  0
M  END
> <s_m_entry_id>
725

> <i_f3d_flags>
0

> <r_lp_tautomer_probability>
1

> <r_epik_Ionization_Penalty>
  0.2720

> <r_epik_State_Penalty>
  0.2641

> <i_epik_Tot_Q>
0

> <s_m_job_name>
glide-dock_SP_p38_all_ligs_no_cons_10_poses

> <r_i_docking_score>
-7.29653333636606

> <r_i_glide_gscore>
-7.56063333636606

> <r_i_glide_emodel>
-60.6944599512243

$$$$
lig_p38a_2s
                    3D
 Schrodinger Suite 2021-4.
 54 57  0  0  1  0            999 V2000
   37.7521   35.5781   15.1845 F   0  0  0  0  0  0
   36.8304   35.5616   16.1707 C   0  0  0  0  0  0
   35.5130   35.1497   15.9025 C   0  0  0  0  0  0
   34.5593   35.1493   16.9370 C   0  0  0  0  0  0
   34.9045   35.5494   18.2443 C   0  0  0  0  0  0
   36.2445   35.9493   18.5104 C   0  0  0  0  0  0
   36.6567   36.3035   19.7510 F   0  0  0  0  0  0
   37.1953   35.9493   17.4705 C   0  0  0  0  0  0
   33.8854   35.5008   19.1694 O   0  0  0  0  0  0
   34.0333   36.0676   20.4037 C   0  0  0  0  0  0
   33.9960   37.4044   20.5529 C   0  0  0  0  0  0
   34.2124   35.1640   21.5406 C   0  0  0  0  0  0
   34.2490   33.9449   21.3760 O   0  0  0  0  0  0
   34.3573   35.7383   22.7724 N   0  0  0  0  0  0
   34.6542   34.8724   23.9354 C   0  0  0  0  0  0
   33.4312   34.5532   24.8319 C   0  0  2  0  0  0
   33.8435   33.5509   25.7425 O   0  0  0  0  0  0
   32.1725   34.0278   24.1086 C   0  0  0  0  0  0
   31.4889   35.0696   23.4396 O   0  0  0  0  0  0
   34.2548   37.1549   22.9904 C   0  0  0  0  0  0
   34.1172   38.0045   21.8720 C   0  0  0  0  0  0
   34.2896   37.6966   24.2265 N   0  0  0  0  0  0
   34.2097   39.0210   24.3455 C   0  0  0  0  0  0
   34.1522   39.9031   23.3495 N   0  0  0  0  0  0
   34.0932   39.3931   22.1026 C   0  0  0  0  0  0
   34.1521   39.5493   25.6172 N   0  0  0  0  0  0
   33.7748   38.7848   26.8000 C   0  0  0  0  0  0
   34.9517   37.9812   27.3813 C   0  0  0  0  0  0
   34.5096   37.2477   28.6567 C   0  0  0  0  0  0
   34.0163   38.1888   29.6062 O   0  0  0  0  0  0
   32.8654   38.8953   29.1495 C   0  0  0  0  0  0
   33.2103   39.7071   27.8903 C   0  0  0  0  0  0
   33.1624   35.4338   25.4170 H   0  0  0  0  0  0
   35.2301   34.8398   14.9077 H   0  0  0  0  0  0
   33.5443   34.8382   16.7288 H   0  0  0  0  0  0
   38.2122   36.2531   17.6742 H   0  0  0  0  0  0
   33.8558   38.0545   19.7025 H   0  0  0  0  0  0
   35.1241   33.9386   23.6209 H   0  0  0  0  0  0
   35.4241   35.3509   24.5433 H   0  0  0  0  0  0
   34.1121   32.7826   25.2500 H   0  0  0  0  0  0
   32.4240   33.2335   23.4050 H   0  0  0  0  0  0
   31.4781   33.6024   24.8342 H   0  0  0  0  0  0
   30.6578   34.7375   23.1312 H   0  0  0  0  0  0
   34.0074   40.0986   21.2889 H   0  0  0  0  0  0
   34.0496   40.5589   25.6708 H   0  0  0  0  0  0
   32.9871   38.0867   26.5105 H   0  0  0  0  0  0
   35.3261   37.2557   26.6590 H   0  0  0  0  0  0
   35.7831   38.6472   27.6136 H   0  0  0  0  0  0
   33.7432   36.5044   28.4303 H   0  0  0  0  0  0
   35.3519   36.7086   29.0919 H   0  0  0  0  0  0
   32.0520   38.1960   28.9490 H   0  0  0  0  0  0
   32.5218   39.5623   29.9408 H   0  0  0  0  0  0
   33.9392   40.4785   28.1452 H   0  0  0  0  0  0
   32.3219   40.2263   27.5282 H   0  0  0  0  0  0
  1  2  1  0  0  0
  2  8  1  0  0  0
  2  3  2  0  0  0
  3  4  1  0  0  0
  3 34  1  0  0  0
  4  5  2  0  0  0
  4 35  1  0  0  0
  5  6  1  0  0  0
  5  9  1  0  0  0
  6  7  1  0  0  0
  6  8  2  0  0  0
  8 36  1  0  0  0
  9 10  1  0  0  0
 10 11  2  0  0  0
 10 12  1  0  0  0
 11 21  1  0  0  0
 11 37  1  0  0  0
 12 13  2  0  0  0
 12 14  1  0  0  0
 14 15  1  0  0  0
 14 20  1  0  0  0
 15 16  1  0  0  0
 15 38  1  0  0  0
 15 39  1  0  0  0
 16 33  1  0  0  0
 16 17  1  0  0  0
 16 18  1  0  0  0
 17 40  1  0  0  0
 18 19  1  0  0  0
 18 41  1  0  0  0
 18 42  1  0  0  0
 19 43  1  0  0  0
 20 21  1  0  0  0
 20 22  2  0  0  0
 21 25  2  0  0  0
 22 23  1  0  0  0
 23 24  2  0  0  0
 23 26  1  0  0  0
 24 25  1  0  0  0
 25 44  1  0  0  0
 26 27  1  0  0  0
 26 45  1  0  0  0
 27 32  1  0  0  0
 27 28  1  0  0  0
 27 46  1  0  0  0
 28 29  1  0  0  0
 28 47  1  0  0  0
 28 48  1  0  0  0
 29 30  1  0  0  0
 29 49  1  0  0  0
 29 50  1  0  0  0
 30 31  1  0  0  0
 31 32  1  0  0  0
 31 51  1  0  0  0
 31 52  1  0  0  0
 32 53  1  0  0  0
 32 54  1  0  0  0
M  END
> <s_m_entry_id>
726

> <i_f3d_flags>
0

> <r_lp_tautomer_probability>
1

> <r_epik_Ionization_Penalty>
  0.0000

> <r_epik_State_Penalty>
  0.0000

> <i_epik_Tot_Q>
0

> <s_m_job_name>
glide-dock_SP_p38_all_ligs_no_cons_10_poses

> <r_i_docking_score>
-7.74233540551802

> <r_i_glide_gscore>
-7.74233540551802

> <r_i_glide_emodel>
-64.3983842009382

$$$$
lig_p38a_2r
                    3D
 Schrodinger Suite 2021-4.
 56 59  0  0  1  0            999 V2000
   38.9518   36.1465   16.2155 F   0  0  0  0  0  0
   37.7909   35.9509   16.8710 C   0  0  0  0  0  0
   36.6282   35.5744   16.1676 C   0  0  0  0  0  0
   35.4119   35.4327   16.8686 C   0  0  0  0  0  0
   34.2936   35.0855   16.1898 F   0  0  0  0  0  0
   35.3562   35.6402   18.2672 C   0  0  0  0  0  0
   36.5500   35.9527   18.9660 C   0  0  0  0  0  0
   37.7570   36.1183   18.2663 C   0  0  0  0  0  0
   34.1367   35.5221   18.8978 O   0  0  0  0  0  0
   33.9414   36.1170   20.1215 C   0  0  0  0  0  0
   34.1415   37.4409   20.2997 C   0  0  0  0  0  0
   33.5245   35.2484   21.2257 C   0  0  0  0  0  0
   33.3193   34.0464   21.0430 O   0  0  0  0  0  0
   33.4016   35.8333   22.4579 N   0  0  0  0  0  0
   33.0413   34.9911   23.6201 C   0  0  0  0  0  0
   34.2614   34.4144   24.3900 C   0  0  0  0  0  0
   34.9389   33.5487   23.5167 O   0  0  0  0  0  0
   35.3149   35.4240   24.8725 C   0  0  0  0  0  0
   33.7697   33.5902   25.5921 C   0  0  0  0  0  0
   33.6254   37.2307   22.6914 C   0  0  0  0  0  0
   33.9980   38.0527   21.6108 C   0  0  0  0  0  0
   33.5207   37.7714   23.9213 N   0  0  0  0  0  0
   33.7852   39.0605   24.0839 C   0  0  0  0  0  0
   34.1436   39.9204   23.1297 N   0  0  0  0  0  0
   34.2443   39.4148   21.8807 C   0  0  0  0  0  0
   33.7056   39.5509   25.3683 N   0  0  0  0  0  0
   34.0697   38.7795   26.5534 C   0  0  0  0  0  0
   34.5807   39.6954   27.6781 C   0  0  0  0  0  0
   33.4266   40.4443   28.3668 C   0  0  0  0  0  0
   32.4647   39.5128   28.8466 O   0  0  0  0  0  0
   31.8487   38.7725   27.7982 C   0  0  0  0  0  0
   32.9093   37.9155   27.0876 C   0  0  0  0  0  0
   36.6605   35.4370   15.0893 H   0  0  0  0  0  0
   36.5538   36.0885   20.0373 H   0  0  0  0  0  0
   38.6589   36.3844   18.7971 H   0  0  0  0  0  0
   34.4573   38.0757   19.4882 H   0  0  0  0  0  0
   32.4176   35.5614   24.3092 H   0  0  0  0  0  0
   32.3839   34.1744   23.3146 H   0  0  0  0  0  0
   34.7581   32.6524   23.8009 H   0  0  0  0  0  0
   34.8775   36.1152   25.5868 H   0  0  0  0  0  0
   36.1346   34.9196   25.3875 H   0  0  0  0  0  0
   35.7508   35.9963   24.0540 H   0  0  0  0  0  0
   33.2609   34.2273   26.3171 H   0  0  0  0  0  0
   33.0626   32.8147   25.2931 H   0  0  0  0  0  0
   34.5988   33.1077   26.1122 H   0  0  0  0  0  0
   34.5423   40.0970   21.0987 H   0  0  0  0  0  0
   33.8191   40.5564   25.4598 H   0  0  0  0  0  0
   34.8984   38.1353   26.2650 H   0  0  0  0  0  0
   35.0923   39.0876   28.4260 H   0  0  0  0  0  0
   35.3213   40.4005   27.2977 H   0  0  0  0  0  0
   33.8045   41.0252   29.2081 H   0  0  0  0  0  0
   32.9521   41.1506   27.6824 H   0  0  0  0  0  0
   31.0732   38.1348   28.2243 H   0  0  0  0  0  0
   31.3537   39.4469   27.0964 H   0  0  0  0  0  0
   32.4488   37.3281   26.2937 H   0  0  0  0  0  0
   33.3062   37.1928   27.8011 H   0  0  0  0  0  0
  1  2  1  0  0  0
  2  8  1  0  0  0
  2  3  2  0  0  0
  3  4  1  0  0  0
  3 33  1  0  0  0
  4  5  1  0  0  0
  4  6  2  0  0  0
  6  7  1  0  0  0
  6  9  1  0  0  0
  7  8  2  0  0  0
  7 34  1  0  0  0
  8 35  1  0  0  0
  9 10  1  0  0  0
 10 11  2  0  0  0
 10 12  1  0  0  0
 11 21  1  0  0  0
 11 36  1  0  0  0
 12 13  2  0  0  0
 12 14  1  0  0  0
 14 15  1  0  0  0
 14 20  1  0  0  0
 15 16  1  0  0  0
 15 37  1  0  0  0
 15 38  1  0  0  0
 16 17  1  0  0  0
 16 18  1  0  0  0
 16 19  1  0  0  0
 17 39  1  0  0  0
 18 40  1  0  0  0
 18 41  1  0  0  0
 18 42  1  0  0  0
 19 43  1  0  0  0
 19 44  1  0  0  0
 19 45  1  0  0  0
 20 21  1  0  0  0
 20 22  2  0  0  0
 21 25  2  0  0  0
 22 23  1  0  0  0
 23 24  2  0  0  0
 23 26  1  0  0  0
 24 25  1  0  0  0
 25 46  1  0  0  0
 26 27  1  0  0  0
 26 47  1  0  0  0
 27 32  1  0  0  0
 27 28  1  0  0  0
 27 48  1  0  0  0
 28 29  1  0  0  0
 28 49  1  0  0  0
 28 50  1  0  0  0
 29 30  1  0  0  0
 29 51  1  0  0  0
 29 52  1  0  0  0
 30 31  1  0  0  0
 31 32  1  0  0  0
 31 53  1  0  0  0
 31 54  1  0  0  0
 32 55  1  0  0  0
 32 56  1  0  0  0
M  END
> <s_m_entry_id>
727

> <i_f3d_flags>
0

> <r_lp_tautomer_probability>
1

> <r_epik_Ionization_Penalty>
  0.0000

> <r_epik_State_Penalty>
  0.0000

> <i_epik_Tot_Q>
0

> <s_m_job_name>
glide-dock_SP_p38_all_ligs_no_cons_10_poses

> <r_i_docking_score>
-7.59796801880748

> <r_i_glide_gscore>
-7.59796801880748

> <r_i_glide_emodel>
-63.5633412471959

$$$$
lig_p38a_2i
                    3D
 Schrodinger Suite 2021-4.
 48 51  0  0  1  0            999 V2000
   36.8540   36.0325   20.2890 F   0  0  0  0  0  0
   36.9030   35.9493   18.9408 C   0  0  0  0  0  0
   38.1520   36.1134   18.3148 C   0  0  0  0  0  0
   38.2777   35.9517   16.9248 C   0  0  0  0  0  0
   37.1403   35.6711   16.1512 C   0  0  0  0  0  0
   35.8788   35.5493   16.7621 C   0  0  0  0  0  0
   35.7453   35.6782   18.1617 C   0  0  0  0  0  0
   34.3542   35.4928   18.7664 C   0  0  0  0  0  0
   34.1485   36.0901   20.1528 C   0  0  0  0  0  0
   34.1940   37.4252   20.3316 C   0  0  0  0  0  0
   33.9621   35.1765   21.2950 C   0  0  0  0  0  0
   34.0007   33.9504   21.1563 O   0  0  0  0  0  0
   33.7743   35.7536   22.5205 N   0  0  0  0  0  0
   33.5297   34.9047   23.6989 C   0  0  0  0  0  0
   33.8426   37.1681   22.7499 C   0  0  0  0  0  0
   34.0766   38.0182   21.6521 C   0  0  0  0  0  0
   33.7101   37.7028   23.9831 N   0  0  0  0  0  0
   33.8438   39.0206   24.1231 C   0  0  0  0  0  0
   34.1254   39.8956   23.1572 N   0  0  0  0  0  0
   34.2272   39.3944   21.9093 C   0  0  0  0  0  0
   33.6625   39.5493   25.3842 N   0  0  0  0  0  0
   33.0512   38.8420   26.5040 C   0  0  0  0  0  0
   33.3139   39.5813   27.8229 C   0  0  0  0  0  0
   32.6241   38.8548   28.9877 C   0  0  0  0  0  0
   31.2271   38.7493   28.7353 O   0  0  0  0  0  0
   30.9181   37.9982   27.5647 C   0  0  0  0  0  0
   31.5310   38.6759   26.3271 C   0  0  0  0  0  0
   39.0250   36.3483   18.9075 H   0  0  0  0  0  0
   39.2438   36.0619   16.4554 H   0  0  0  0  0  0
   37.2408   35.5585   15.0889 H   0  0  0  0  0  0
   35.0113   35.3444   16.1500 H   0  0  0  0  0  0
   33.6195   35.9494   18.1035 H   0  0  0  0  0  0
   34.1112   34.4303   18.7493 H   0  0  0  0  0  0
   34.3556   38.0829   19.4892 H   0  0  0  0  0  0
   34.2671   35.1183   24.4769 H   0  0  0  0  0  0
   32.5402   35.1220   24.1093 H   0  0  0  0  0  0
   33.5739   33.8283   23.5143 H   0  0  0  0  0  0
   34.4334   40.0973   21.1151 H   0  0  0  0  0  0
   33.7518   40.5582   25.4735 H   0  0  0  0  0  0
   33.5079   37.8530   26.5742 H   0  0  0  0  0  0
   34.3857   39.6512   28.0103 H   0  0  0  0  0  0
   32.9385   40.6040   27.7623 H   0  0  0  0  0  0
   33.0529   37.8627   29.1341 H   0  0  0  0  0  0
   32.7719   39.4092   29.9146 H   0  0  0  0  0  0
   31.2823   36.9751   27.6694 H   0  0  0  0  0  0
   29.8340   37.9409   27.4644 H   0  0  0  0  0  0
   31.0632   39.6503   26.1792 H   0  0  0  0  0  0
   31.3067   38.0844   25.4386 H   0  0  0  0  0  0
  1  2  1  0  0  0
  2  7  1  0  0  0
  2  3  2  0  0  0
  3  4  1  0  0  0
  3 28  1  0  0  0
  4  5  2  0  0  0
  4 29  1  0  0  0
  5  6  1  0  0  0
  5 30  1  0  0  0
  6  7  2  0  0  0
  6 31  1  0  0  0
  7  8  1  0  0  0
  8  9  1  0  0  0
  8 32  1  0  0  0
  8 33  1  0  0  0
  9 10  2  0  0  0
  9 11  1  0  0  0
 10 16  1  0  0  0
 10 34  1  0  0  0
 11 12  2  0  0  0
 11 13  1  0  0  0
 13 14  1  0  0  0
 13 15  1  0  0  0
 14 35  1  0  0  0
 14 36  1  0  0  0
 14 37  1  0  0  0
 15 16  1  0  0  0
 15 17  2  0  0  0
 16 20  2  0  0  0
 17 18  1  0  0  0
 18 19  2  0  0  0
 18 21  1  0  0  0
 19 20  1  0  0  0
 20 38  1  0  0  0
 21 22  1  0  0  0
 21 39  1  0  0  0
 22 27  1  0  0  0
 22 23  1  0  0  0
 22 40  1  0  0  0
 23 24  1  0  0  0
 23 41  1  0  0  0
 23 42  1  0  0  0
 24 25  1  0  0  0
 24 43  1  0  0  0
 24 44  1  0  0  0
 25 26  1  0  0  0
 26 27  1  0  0  0
 26 45  1  0  0  0
 26 46  1  0  0  0
 27 47  1  0  0  0
 27 48  1  0  0  0
M  END
> <s_m_entry_id>
728

> <i_f3d_flags>
0

> <r_lp_tautomer_probability>
1

> <r_epik_Ionization_Penalty>
  0.0000

> <r_epik_State_Penalty>
  0.0000

> <i_epik_Tot_Q>
0

> <s_m_job_name>
glide-dock_SP_p38_all_ligs_no_cons_10_poses

> <r_i_docking_score>
-7.87105482982899

> <r_i_glide_gscore>
-7.87105482982899

> <r_i_glide_emodel>
-64.2557575232088

$$$$
lig_p38a_2q
                    3D
 Schrodinger Suite 2021-4.
 59 63  0  0  1  0            999 V2000
   38.9517   36.3532   16.0429 F   0  0  0  0  0  0
   37.8638   36.0895   16.7907 C   0  0  0  0  0  0
   37.9326   36.1655   18.1927 C   0  0  0  0  0  0
   36.7756   35.9499   18.9651 C   0  0  0  0  0  0
   36.8845   35.9653   20.3111 F   0  0  0  0  0  0
   35.5391   35.6565   18.3300 C   0  0  0  0  0  0
   35.4961   35.5491   16.9272 C   0  0  0  0  0  0
   36.6510   35.7723   16.1611 C   0  0  0  0  0  0
   34.3680   35.3993   19.0027 O   0  0  0  0  0  0
   34.0937   36.0269   20.1894 C   0  0  0  0  0  0
   34.2430   37.3597   20.3351 C   0  0  0  0  0  0
   33.6264   35.1746   21.2848 C   0  0  0  0  0  0
   33.6201   33.9476   21.1621 O   0  0  0  0  0  0
   33.2374   35.8008   22.4391 N   0  0  0  0  0  0
   32.5646   34.9917   23.4995 C   0  0  0  0  0  0
   33.5277   34.6563   24.6616 C   0  0  0  0  0  0
   32.9517   33.6086   25.6234 C   0  0  0  0  0  0
   31.2080   35.5852   23.9615 C   0  0  0  0  0  0
   30.4144   34.6205   24.8529 C   0  0  0  0  0  0
   31.3736   34.1931   26.3606 S   0  0  0  0  0  0
   30.7232   33.0622   27.0383 O   0  0  0  0  0  0
   31.6531   35.4404   27.0864 O   0  0  0  0  0  0
   33.5331   37.1930   22.6825 C   0  0  0  0  0  0
   34.0098   37.9922   21.6223 C   0  0  0  0  0  0
   33.4037   37.7547   23.8979 N   0  0  0  0  0  0
   33.7092   39.0381   24.0715 C   0  0  0  0  0  0
   34.1523   39.8710   23.1305 N   0  0  0  0  0  0
   34.3044   39.3447   21.8962 C   0  0  0  0  0  0
   33.5565   39.5486   25.3468 N   0  0  0  0  0  0
   33.0655   38.7459   26.4706 C   0  0  0  0  0  0
   34.1626   37.8645   27.0941 C   0  0  0  0  0  0
   35.0903   38.6681   28.0139 C   0  0  0  0  0  0
   34.3296   39.3299   29.0128 O   0  0  0  0  0  0
   33.4266   40.2837   28.4722 C   0  0  0  0  0  0
   32.4033   39.5979   27.5549 C   0  0  0  0  0  0
   38.8741   36.3833   18.6748 H   0  0  0  0  0  0
   34.5640   35.3082   16.4356 H   0  0  0  0  0  0
   36.6030   35.7208   15.0891 H   0  0  0  0  0  0
   34.5784   37.9785   19.5152 H   0  0  0  0  0  0
   32.2757   34.0269   23.0804 H   0  0  0  0  0  0
   34.4675   34.2779   24.2606 H   0  0  0  0  0  0
   33.7759   35.5517   25.2279 H   0  0  0  0  0  0
   32.7603   32.6678   25.1082 H   0  0  0  0  0  0
   33.6447   33.4018   26.4370 H   0  0  0  0  0  0
   31.3344   36.5128   24.5144 H   0  0  0  0  0  0
   30.6034   35.8328   23.0905 H   0  0  0  0  0  0
   30.1733   33.6988   24.3242 H   0  0  0  0  0  0
   29.4719   35.0696   25.1727 H   0  0  0  0  0  0
   34.6868   39.9971   21.1268 H   0  0  0  0  0  0
   33.7519   40.5356   25.4891 H   0  0  0  0  0  0
   32.2855   38.0908   26.0837 H   0  0  0  0  0  0
   34.7463   37.3577   26.3262 H   0  0  0  0  0  0
   33.6903   37.0782   27.6832 H   0  0  0  0  0  0
   35.6889   39.3837   27.4476 H   0  0  0  0  0  0
   35.7747   37.9890   28.5167 H   0  0  0  0  0  0
   33.9704   41.0677   27.9434 H   0  0  0  0  0  0
   32.9053   40.7495   29.3056 H   0  0  0  0  0  0
   31.7669   38.9566   28.1650 H   0  0  0  0  0  0
   31.7474   40.3397   27.0998 H   0  0  0  0  0  0
  1  2  1  0  0  0
  2  8  1  0  0  0
  2  3  2  0  0  0
  3  4  1  0  0  0
  3 36  1  0  0  0
  4  5  1  0  0  0
  4  6  2  0  0  0
  6  7  1  0  0  0
  6  9  1  0  0  0
  7  8  2  0  0  0
  7 37  1  0  0  0
  8 38  1  0  0  0
  9 10  1  0  0  0
 10 11  2  0  0  0
 10 12  1  0  0  0
 11 24  1  0  0  0
 11 39  1  0  0  0
 12 13  2  0  0  0
 12 14  1  0  0  0
 14 15  1  0  0  0
 14 23  1  0  0  0
 15 16  1  0  0  0
 15 18  1  0  0  0
 15 40  1  0  0  0
 16 17  1  0  0  0
 16 41  1  0  0  0
 16 42  1  0  0  0
 17 20  1  0  0  0
 17 43  1  0  0  0
 17 44  1  0  0  0
 18 19  1  0  0  0
 18 45  1  0  0  0
 18 46  1  0  0  0
 19 20  1  0  0  0
 19 47  1  0  0  0
 19 48  1  0  0  0
 20 21  2  0  0  0
 20 22  2  0  0  0
 23 24  1  0  0  0
 23 25  2  0  0  0
 24 28  2  0  0  0
 25 26  1  0  0  0
 26 27  2  0  0  0
 26 29  1  0  0  0
 27 28  1  0  0  0
 28 49  1  0  0  0
 29 30  1  0  0  0
 29 50  1  0  0  0
 30 35  1  0  0  0
 30 31  1  0  0  0
 30 51  1  0  0  0
 31 32  1  0  0  0
 31 52  1  0  0  0
 31 53  1  0  0  0
 32 33  1  0  0  0
 32 54  1  0  0  0
 32 55  1  0  0  0
 33 34  1  0  0  0
 34 35  1  0  0  0
 34 56  1  0  0  0
 34 57  1  0  0  0
 35 58  1  0  0  0
 35 59  1  0  0  0
M  END
> <s_m_entry_id>
729

> <i_f3d_flags>
0

> <r_lp_tautomer_probability>
1

> <r_epik_Ionization_Penalty>
  0.0000

> <r_epik_State_Penalty>
  0.0000

> <i_epik_Tot_Q>
0

> <s_m_job_name>
glide-dock_SP_p38_all_ligs_no_cons_10_poses

> <r_i_docking_score>
-7.62966564060948

> <r_i_glide_gscore>
-7.62966564060948

> <r_i_glide_emodel>
-73.7292297877742

$$$$
lig_p38a_2h
                    3D
 Schrodinger Suite 2021-4.
 46 49  0  0  1  0            999 V2000
   35.1886   35.1337   15.8056 F   0  0  0  0  0  0
   36.1020   35.5522   16.7121 C   0  0  0  0  0  0
   37.3928   35.9263   16.2793 C   0  0  0  0  0  0
   38.3637   36.3378   17.2137 C   0  0  0  0  0  0
   38.0481   36.3489   18.5873 C   0  0  0  0  0  0
   36.7623   35.9773   19.0232 C   0  0  0  0  0  0
   35.7710   35.6048   18.0858 C   0  0  0  0  0  0
   34.1554   35.1212   18.6197 S   0  0  0  0  0  0
   33.9233   36.0198   20.1369 C   0  0  0  0  0  0
   34.1550   37.3348   20.2950 C   0  0  0  0  0  0
   33.4898   35.1438   21.2361 C   0  0  0  0  0  0
   33.4053   33.9182   21.1205 O   0  0  0  0  0  0
   33.2366   35.7717   22.4240 N   0  0  0  0  0  0
   32.7247   34.9791   23.5525 C   0  0  0  0  0  0
   33.5264   37.1586   22.6663 C   0  0  0  0  0  0
   33.9879   37.9542   21.5987 C   0  0  0  0  0  0
   33.3936   37.7143   23.8894 N   0  0  0  0  0  0
   33.7006   39.0020   24.0460 C   0  0  0  0  0  0
   34.1523   39.8279   23.1042 N   0  0  0  0  0  0
   34.2949   39.3020   21.8697 C   0  0  0  0  0  0
   33.5359   39.5491   25.3016 N   0  0  0  0  0  0
   32.9443   38.8566   26.4423 C   0  0  0  0  0  0
   33.2488   39.5950   27.7523 C   0  0  0  0  0  0
   32.5906   38.8652   28.9347 C   0  0  0  0  0  0
   31.1887   38.7485   28.7277 O   0  0  0  0  0  0
   30.8415   38.0105   27.5597 C   0  0  0  0  0  0
   31.4178   38.6995   26.3104 C   0  0  0  0  0  0
   37.6370   35.8977   15.2272 H   0  0  0  0  0  0
   39.3512   36.6290   16.8846 H   0  0  0  0  0  0
   38.7936   36.6366   19.3116 H   0  0  0  0  0  0
   36.5568   35.9829   20.0835 H   0  0  0  0  0  0
   34.4962   37.9544   19.4790 H   0  0  0  0  0  0
   33.5448   34.7109   24.2195 H   0  0  0  0  0  0
   31.9879   35.5413   24.1313 H   0  0  0  0  0  0
   32.2226   34.0599   23.2500 H   0  0  0  0  0  0
   34.6624   39.9578   21.0953 H   0  0  0  0  0  0
   33.7526   40.5354   25.4118 H   0  0  0  0  0  0
   33.3955   37.8637   26.5018 H   0  0  0  0  0  0
   34.3266   39.6623   27.9082 H   0  0  0  0  0  0
   32.8742   40.6202   27.7046 H   0  0  0  0  0  0
   33.0295   37.8748   29.0726 H   0  0  0  0  0  0
   32.7614   39.4226   29.8549 H   0  0  0  0  0  0
   31.2172   36.9898   27.6427 H   0  0  0  0  0  0
   29.7549   37.9474   27.4920 H   0  0  0  0  0  0
   30.9534   39.6781   26.1849 H   0  0  0  0  0  0
   31.1582   38.1206   25.4255 H   0  0  0  0  0  0
  1  2  1  0  0  0
  2  7  1  0  0  0
  2  3  2  0  0  0
  3  4  1  0  0  0
  3 28  1  0  0  0
  4  5  2  0  0  0
  4 29  1  0  0  0
  5  6  1  0  0  0
  5 30  1  0  0  0
  6  7  2  0  0  0
  6 31  1  0  0  0
  7  8  1  0  0  0
  8  9  1  0  0  0
  9 10  2  0  0  0
  9 11  1  0  0  0
 10 16  1  0  0  0
 10 32  1  0  0  0
 11 12  2  0  0  0
 11 13  1  0  0  0
 13 14  1  0  0  0
 13 15  1  0  0  0
 14 33  1  0  0  0
 14 34  1  0  0  0
 14 35  1  0  0  0
 15 16  1  0  0  0
 15 17  2  0  0  0
 16 20  2  0  0  0
 17 18  1  0  0  0
 18 19  2  0  0  0
 18 21  1  0  0  0
 19 20  1  0  0  0
 20 36  1  0  0  0
 21 22  1  0  0  0
 21 37  1  0  0  0
 22 27  1  0  0  0
 22 23  1  0  0  0
 22 38  1  0  0  0
 23 24  1  0  0  0
 23 39  1  0  0  0
 23 40  1  0  0  0
 24 25  1  0  0  0
 24 41  1  0  0  0
 24 42  1  0  0  0
 25 26  1  0  0  0
 26 27  1  0  0  0
 26 43  1  0  0  0
 26 44  1  0  0  0
 27 45  1  0  0  0
 27 46  1  0  0  0
M  END
> <s_m_entry_id>
730

> <i_f3d_flags>
0

> <r_lp_tautomer_probability>
1

> <r_epik_Ionization_Penalty>
  0.0000

> <r_epik_State_Penalty>
  0.0000

> <i_epik_Tot_Q>
0

> <s_m_job_name>
glide-dock_SP_p38_all_ligs_no_cons_10_poses

> <r_i_docking_score>
-7.42930141047868

> <r_i_glide_gscore>
-7.42930141047868

> <r_i_glide_emodel>
-60.658158996823

$$$$
lig_p38a_2e
                    3D
 Schrodinger Suite 2021-4.
 46 49  0  0  1  0            999 V2000
   38.9520   36.3513   15.9872 F   0  0  0  0  0  0
   37.8846   36.0864   16.7639 C   0  0  0  0  0  0
   37.9911   36.1595   18.1655 C   0  0  0  0  0  0
   36.8525   35.9496   18.9677 C   0  0  0  0  0  0
   35.6069   35.6464   18.3617 C   0  0  0  0  0  0
   35.5234   35.5492   16.9603 C   0  0  0  0  0  0
   36.6555   35.7788   16.1622 C   0  0  0  0  0  0
   34.4654   35.3863   19.0784 O   0  0  0  0  0  0
   34.2820   35.9842   20.2950 C   0  0  0  0  0  0
   34.3692   37.3228   20.4341 C   0  0  0  0  0  0
   33.9685   35.1075   21.4249 C   0  0  0  0  0  0
   33.9605   33.8838   21.2930 O   0  0  0  0  0  0
   33.7184   35.7133   22.6213 N   0  0  0  0  0  0
   33.3590   34.8932   23.7904 C   0  0  0  0  0  0
   33.8427   37.1267   22.8284 C   0  0  0  0  0  0
   34.1762   37.9476   21.7316 C   0  0  0  0  0  0
   33.6675   37.6851   24.0435 N   0  0  0  0  0  0
   33.8219   39.0014   24.1651 C   0  0  0  0  0  0
   34.1522   39.8554   23.1975 N   0  0  0  0  0  0
   34.3246   39.3280   21.9691 C   0  0  0  0  0  0
   33.6229   39.5493   25.4121 N   0  0  0  0  0  0
   33.0201   38.8543   26.5440 C   0  0  0  0  0  0
   33.2451   39.6339   27.8462 C   0  0  0  0  0  0
   32.5649   38.9125   29.0209 C   0  0  0  0  0  0
   31.1762   38.7493   28.7563 O   0  0  0  0  0  0
   30.9047   37.9648   27.5997 C   0  0  0  0  0  0
   31.5085   38.6376   26.3548 C   0  0  0  0  0  0
   38.9469   36.3844   18.6197 H   0  0  0  0  0  0
   36.9492   36.0059   20.0427 H   0  0  0  0  0  0
   34.5777   35.3124   16.4943 H   0  0  0  0  0  0
   36.5798   35.7314   15.0891 H   0  0  0  0  0  0
   34.5888   37.9595   19.5896 H   0  0  0  0  0  0
   34.1847   34.8820   24.5040 H   0  0  0  0  0  0
   32.4873   35.3132   24.2959 H   0  0  0  0  0  0
   33.1100   33.8553   23.5597 H   0  0  0  0  0  0
   34.5872   40.0097   21.1735 H   0  0  0  0  0  0
   33.7506   40.5533   25.4913 H   0  0  0  0  0  0
   33.5056   37.8826   26.6438 H   0  0  0  0  0  0
   34.3120   39.7417   28.0440 H   0  0  0  0  0  0
   32.8386   40.6421   27.7554 H   0  0  0  0  0  0
   33.0262   37.9408   29.2011 H   0  0  0  0  0  0
   32.6813   39.4970   29.9333 H   0  0  0  0  0  0
   31.3014   36.9579   27.7299 H   0  0  0  0  0  0
   29.8247   37.8696   27.4868 H   0  0  0  0  0  0
   31.0110   39.5926   26.1814 H   0  0  0  0  0  0
   31.3111   38.0210   25.4778 H   0  0  0  0  0  0
  1  2  1  0  0  0
  2  7  1  0  0  0
  2  3  2  0  0  0
  3  4  1  0  0  0
  3 28  1  0  0  0
  4  5  2  0  0  0
  4 29  1  0  0  0
  5  6  1  0  0  0
  5  8  1  0  0  0
  6  7  2  0  0  0
  6 30  1  0  0  0
  7 31  1  0  0  0
  8  9  1  0  0  0
  9 10  2  0  0  0
  9 11  1  0  0  0
 10 16  1  0  0  0
 10 32  1  0  0  0
 11 12  2  0  0  0
 11 13  1  0  0  0
 13 14  1  0  0  0
 13 15  1  0  0  0
 14 33  1  0  0  0
 14 34  1  0  0  0
 14 35  1  0  0  0
 15 16  1  0  0  0
 15 17  2  0  0  0
 16 20  2  0  0  0
 17 18  1  0  0  0
 18 19  2  0  0  0
 18 21  1  0  0  0
 19 20  1  0  0  0
 20 36  1  0  0  0
 21 22  1  0  0  0
 21 37  1  0  0  0
 22 27  1  0  0  0
 22 23  1  0  0  0
 22 38  1  0  0  0
 23 24  1  0  0  0
 23 39  1  0  0  0
 23 40  1  0  0  0
 24 25  1  0  0  0
 24 41  1  0  0  0
 24 42  1  0  0  0
 25 26  1  0  0  0
 26 27  1  0  0  0
 26 43  1  0  0  0
 26 44  1  0  0  0
 27 45  1  0  0  0
 27 46  1  0  0  0
M  END
> <s_m_entry_id>
731

> <i_f3d_flags>
0

> <r_lp_tautomer_probability>
1

> <r_epik_Ionization_Penalty>
  0.0000

> <r_epik_State_Penalty>
  0.0000

> <i_epik_Tot_Q>
0

> <s_m_job_name>
glide-dock_SP_p38_all_ligs_no_cons_10_poses

> <r_i_docking_score>
-7.42915205253395

> <r_i_glide_gscore>
-7.42915205253395

> <r_i_glide_emodel>
-59.6229243139491

$$$$
lig_p38a_3fmk
                    3D
 Schrodinger Suite 2021-4.
 46 49  0  0  1  0            999 V2000
   38.9521   36.0481   16.2879 F   0  0  0  0  0  0
   37.8265   35.9494   17.0153 C   0  0  0  0  0  0
   36.6132   35.6411   16.3800 C   0  0  0  0  0  0
   35.4360   35.5447   17.1412 C   0  0  0  0  0  0
   34.2897   35.1492   16.5369 F   0  0  0  0  0  0
   35.4585   35.7697   18.5329 C   0  0  0  0  0  0
   36.6917   36.0732   19.1642 C   0  0  0  0  0  0
   37.8704   36.1665   18.4044 C   0  0  0  0  0  0
   34.2764   35.6278   19.2223 O   0  0  0  0  0  0
   34.1861   36.1593   20.4779 C   0  0  0  0  0  0
   34.1970   37.4960   20.6469 C   0  0  0  0  0  0
   34.1270   35.2277   21.6092 C   0  0  0  0  0  0
   34.1520   34.0071   21.4321 O   0  0  0  0  0  0
   34.0786   35.7872   22.8541 N   0  0  0  0  0  0
   34.0287   34.9204   24.0428 C   0  0  0  0  0  0
   34.0967   37.2044   23.0832 C   0  0  0  0  0  0
   34.1631   38.0749   21.9774 C   0  0  0  0  0  0
   34.0508   37.7249   24.3258 N   0  0  0  0  0  0
   34.0590   39.0486   24.4685 C   0  0  0  0  0  0
   34.1522   39.9482   23.4891 N   0  0  0  0  0  0
   34.2022   39.4593   22.2324 C   0  0  0  0  0  0
   33.9177   39.5492   25.7461 N   0  0  0  0  0  0
   33.4408   38.7515   26.8722 C   0  0  1  0  0  0
   34.6214   38.2160   27.6988 C   0  0  0  0  0  0
   32.4198   39.5379   27.7139 C   0  0  0  0  0  0
   31.6078   38.6477   28.5247 N   0  0  3  0  0  0
   30.5758   37.9493   28.0138 N   0  0  0  0  0  0
   30.1953   37.2868   29.0928 C   0  0  0  0  0  0
   30.9526   37.5496   30.1980 N   0  0  0  0  0  0
   31.8408   38.4178   29.8318 N   0  0  0  0  0  0
   32.9032   37.8909   26.4730 H   0  0  0  0  0  0
   36.5889   35.4609   15.3164 H   0  0  0  0  0  0
   36.7576   36.2296   20.2311 H   0  0  0  0  0  0
   38.8116   36.3944   18.8829 H   0  0  0  0  0  0
   34.2573   38.1637   19.8000 H   0  0  0  0  0  0
   34.0177   33.8495   23.8347 H   0  0  0  0  0  0
   34.8930   35.1108   24.6813 H   0  0  0  0  0  0
   33.1313   35.1374   24.6243 H   0  0  0  0  0  0
   34.2655   40.1789   21.4293 H   0  0  0  0  0  0
   33.8744   40.5628   25.8264 H   0  0  0  0  0  0
   34.2796   37.5691   28.5069 H   0  0  0  0  0  0
   35.2980   37.6263   27.0789 H   0  0  0  0  0  0
   35.1984   39.0273   28.1419 H   0  0  0  0  0  0
   31.7458   40.0947   27.0621 H   0  0  0  0  0  0
   32.9091   40.2722   28.3556 H   0  0  0  0  0  0
   29.3593   36.6022   29.0894 H   0  0  0  0  0  0
  1  2  1  0  0  0
  2  8  1  0  0  0
  2  3  2  0  0  0
  3  4  1  0  0  0
  3 32  1  0  0  0
  4  5  1  0  0  0
  4  6  2  0  0  0
  6  7  1  0  0  0
  6  9  1  0  0  0
  7  8  2  0  0  0
  7 33  1  0  0  0
  8 34  1  0  0  0
  9 10  1  0  0  0
 10 11  2  0  0  0
 10 12  1  0  0  0
 11 17  1  0  0  0
 11 35  1  0  0  0
 12 13  2  0  0  0
 12 14  1  0  0  0
 14 15  1  0  0  0
 14 16  1  0  0  0
 15 36  1  0  0  0
 15 37  1  0  0  0
 15 38  1  0  0  0
 16 17  1  0  0  0
 16 18  2  0  0  0
 17 21  2  0  0  0
 18 19  1  0  0  0
 19 20  2  0  0  0
 19 22  1  0  0  0
 20 21  1  0  0  0
 21 39  1  0  0  0
 22 23  1  0  0  0
 22 40  1  0  0  0
 23 31  1  0  0  0
 23 24  1  0  0  0
 23 25  1  0  0  0
 24 41  1  0  0  0
 24 42  1  0  0  0
 24 43  1  0  0  0
 25 26  1  0  0  0
 25 44  1  0  0  0
 25 45  1  0  0  0
 26 30  1  0  0  0
 26 27  1  0  0  0
 27 28  2  0  0  0
 28 29  1  0  0  0
 28 46  1  0  0  0
 29 30  2  0  0  0
M  END
> <s_m_entry_id>
732

> <i_f3d_flags>
0

> <r_lp_tautomer_probability>
1

> <r_epik_Ionization_Penalty>
  0.0000

> <r_epik_State_Penalty>
  0.0000

> <i_epik_Tot_Q>
0

> <s_m_job_name>
glide-dock_SP_p38_all_ligs_no_cons_10_poses

> <r_i_docking_score>
-7.4757481535722

> <r_i_glide_gscore>
-7.4757481535722

> <r_i_glide_emodel>
-65.8658888238151

$$$$
lig_p38a_2bb
                    3D
 Schrodinger Suite 2021-4.
 44 46  0  0  1  0            999 V2000
   38.9485   36.5326   15.8892 F   0  0  0  0  0  0
   37.9275   36.1988   16.7039 C   0  0  0  0  0  0
   38.1031   36.2247   18.0985 C   0  0  0  0  0  0
   37.0181   35.9493   18.9526 C   0  0  0  0  0  0
   37.2184   35.9495   20.2890 F   0  0  0  0  0  0
   35.7521   35.6145   18.4065 C   0  0  0  0  0  0
   35.6021   35.5493   17.0074 C   0  0  0  0  0  0
   36.6795   35.8563   16.1580 C   0  0  0  0  0  0
   34.6661   35.2657   19.1730 O   0  0  0  0  0  0
   34.3720   35.9475   20.3275 C   0  0  0  0  0  0
   34.5457   37.2812   20.4333 C   0  0  0  0  0  0
   33.8196   35.1585   21.4323 C   0  0  0  0  0  0
   33.7564   33.9303   21.3637 O   0  0  0  0  0  0
   33.4050   35.8473   22.5382 N   0  0  0  0  0  0
   32.7793   35.1098   23.6460 C   0  0  0  0  0  0
   33.6158   37.2563   22.7156 C   0  0  0  0  0  0
   34.2126   37.9785   21.6620 C   0  0  0  0  0  0
   33.2697   37.9033   23.8534 N   0  0  0  0  0  0
   33.5453   39.2038   23.9465 C   0  0  0  0  0  0
   34.1522   39.9493   23.0279 N   0  0  0  0  0  0
   34.4821   39.3414   21.8733 C   0  0  0  0  0  0
   33.1258   39.8914   25.0659 N   0  0  0  0  0  0
   32.5510   39.3026   26.2646 C   0  0  0  0  0  0
   33.4604   39.4794   27.4925 C   0  0  0  0  0  0
   34.9405   38.3707   27.5057 S   0  0  0  0  0  0
   35.5692   38.4882   28.8291 O   0  0  0  0  0  0
   35.7437   38.5922   26.2936 O   0  0  0  0  0  0
   34.1817   36.7038   27.3792 C   0  0  0  0  0  0
   39.0712   36.4554   18.5138 H   0  0  0  0  0  0
   34.6445   35.2826   16.5837 H   0  0  0  0  0  0
   36.5429   35.8422   15.0906 H   0  0  0  0  0  0
   34.9278   37.8686   19.6111 H   0  0  0  0  0  0
   32.3578   34.1466   23.3521 H   0  0  0  0  0  0
   33.5143   34.9272   24.4323 H   0  0  0  0  0  0
   31.9531   35.6759   24.0795 H   0  0  0  0  0  0
   34.9567   39.9462   21.1154 H   0  0  0  0  0  0
   33.4147   40.8648   25.1397 H   0  0  0  0  0  0
   32.2776   38.2589   26.1200 H   0  0  0  0  0  0
   31.6137   39.8270   26.4490 H   0  0  0  0  0  0
   32.8964   39.2644   28.4001 H   0  0  0  0  0  0
   33.8067   40.5100   27.5777 H   0  0  0  0  0  0
   34.9526   35.9499   27.5191 H   0  0  0  0  0  0
   33.7397   36.5729   26.3927 H   0  0  0  0  0  0
   33.4214   36.5857   28.1484 H   0  0  0  0  0  0
  1  2  1  0  0  0
  2  8  1  0  0  0
  2  3  2  0  0  0
  3  4  1  0  0  0
  3 29  1  0  0  0
  4  5  1  0  0  0
  4  6  2  0  0  0
  6  7  1  0  0  0
  6  9  1  0  0  0
  7  8  2  0  0  0
  7 30  1  0  0  0
  8 31  1  0  0  0
  9 10  1  0  0  0
 10 11  2  0  0  0
 10 12  1  0  0  0
 11 17  1  0  0  0
 11 32  1  0  0  0
 12 13  2  0  0  0
 12 14  1  0  0  0
 14 15  1  0  0  0
 14 16  1  0  0  0
 15 33  1  0  0  0
 15 34  1  0  0  0
 15 35  1  0  0  0
 16 17  1  0  0  0
 16 18  2  0  0  0
 17 21  2  0  0  0
 18 19  1  0  0  0
 19 20  2  0  0  0
 19 22  1  0  0  0
 20 21  1  0  0  0
 21 36  1  0  0  0
 22 23  1  0  0  0
 22 37  1  0  0  0
 23 24  1  0  0  0
 23 38  1  0  0  0
 23 39  1  0  0  0
 24 25  1  0  0  0
 24 40  1  0  0  0
 24 41  1  0  0  0
 25 26  2  0  0  0
 25 27  2  0  0  0
 25 28  1  0  0  0
 28 42  1  0  0  0
 28 43  1  0  0  0
 28 44  1  0  0  0
M  END
> <s_m_entry_id>
733

> <i_f3d_flags>
0

> <r_lp_tautomer_probability>
1

> <r_epik_Ionization_Penalty>
  0.0000

> <r_epik_State_Penalty>
  0.0000

> <i_epik_Tot_Q>
0

> <s_m_job_name>
glide-dock_SP_p38_all_ligs_no_cons_10_poses

> <r_i_docking_score>
-7.41626309112925

> <r_i_glide_gscore>
-7.41626309112925

> <r_i_glide_emodel>
-59.6950717237378

$$$$
lig_p38a_2aa
                    3D
 Schrodinger Suite 2021-4.
 43 45  0  0  1  0            999 V2000
   38.9521   36.5271   16.0020 F   0  0  0  0  0  0
   37.9036   36.1904   16.7733 C   0  0  0  0  0  0
   36.6920   35.8386   16.1614 C   0  0  0  0  0  0
   35.5679   35.5491   16.9474 C   0  0  0  0  0  0
   34.4213   35.1491   16.3486 F   0  0  0  0  0  0
   35.6366   35.6384   18.3520 C   0  0  0  0  0  0
   36.8740   35.9511   18.9689 C   0  0  0  0  0  0
   38.0066   36.2249   18.1769 C   0  0  0  0  0  0
   34.4976   35.3619   19.0651 O   0  0  0  0  0  0
   34.3105   35.9706   20.2769 C   0  0  0  0  0  0
   34.3258   37.3135   20.3920 C   0  0  0  0  0  0
   34.1054   35.0938   21.4312 C   0  0  0  0  0  0
   34.1518   33.8710   21.3116 O   0  0  0  0  0  0
   33.8989   35.7029   22.6342 N   0  0  0  0  0  0
   33.6731   34.8800   23.8352 C   0  0  0  0  0  0
   33.9545   37.1229   22.8166 C   0  0  0  0  0  0
   34.1684   37.9468   21.6919 C   0  0  0  0  0  0
   33.8396   37.6861   24.0351 N   0  0  0  0  0  0
   33.9491   39.0063   24.1397 C   0  0  0  0  0  0
   34.1518   39.8671   23.1430 N   0  0  0  0  0  0
   34.2551   39.3365   21.9059 C   0  0  0  0  0  0
   33.8799   39.5493   25.4026 N   0  0  0  0  0  0
   33.6930   38.8007   26.6432 C   0  0  0  0  0  0
   33.2708   39.7626   27.7724 C   0  0  0  0  0  0
   34.2607   40.7491   27.9944 O   0  0  0  0  0  0
   34.9224   37.9347   27.0153 C   0  0  0  0  0  0
   34.5524   36.9393   27.9495 O   0  0  0  0  0  0
   36.6263   35.7970   15.0891 H   0  0  0  0  0  0
   36.9658   35.9898   20.0453 H   0  0  0  0  0  0
   38.9486   36.4772   18.6409 H   0  0  0  0  0  0
   34.4769   37.9476   19.5298 H   0  0  0  0  0  0
   33.4697   33.8268   23.6354 H   0  0  0  0  0  0
   34.5477   34.9268   24.4858 H   0  0  0  0  0  0
   32.8177   35.2557   24.3984 H   0  0  0  0  0  0
   34.4263   40.0235   21.0906 H   0  0  0  0  0  0
   33.9338   40.5576   25.4726 H   0  0  0  0  0  0
   32.8551   38.1244   26.4642 H   0  0  0  0  0  0
   33.1120   39.2093   28.6991 H   0  0  0  0  0  0
   32.3277   40.2560   27.5315 H   0  0  0  0  0  0
   34.1737   41.4099   27.3151 H   0  0  0  0  0  0
   35.3232   37.4156   26.1451 H   0  0  0  0  0  0
   35.7365   38.5416   27.4146 H   0  0  0  0  0  0
   35.2152   36.2611   27.9548 H   0  0  0  0  0  0
  1  2  1  0  0  0
  2  8  1  0  0  0
  2  3  2  0  0  0
  3  4  1  0  0  0
  3 28  1  0  0  0
  4  5  1  0  0  0
  4  6  2  0  0  0
  6  7  1  0  0  0
  6  9  1  0  0  0
  7  8  2  0  0  0
  7 29  1  0  0  0
  8 30  1  0  0  0
  9 10  1  0  0  0
 10 11  2  0  0  0
 10 12  1  0  0  0
 11 17  1  0  0  0
 11 31  1  0  0  0
 12 13  2  0  0  0
 12 14  1  0  0  0
 14 15  1  0  0  0
 14 16  1  0  0  0
 15 32  1  0  0  0
 15 33  1  0  0  0
 15 34  1  0  0  0
 16 17  1  0  0  0
 16 18  2  0  0  0
 17 21  2  0  0  0
 18 19  1  0  0  0
 19 20  2  0  0  0
 19 22  1  0  0  0
 20 21  1  0  0  0
 21 35  1  0  0  0
 22 23  1  0  0  0
 22 36  1  0  0  0
 23 24  1  0  0  0
 23 26  1  0  0  0
 23 37  1  0  0  0
 24 25  1  0  0  0
 24 38  1  0  0  0
 24 39  1  0  0  0
 25 40  1  0  0  0
 26 27  1  0  0  0
 26 41  1  0  0  0
 26 42  1  0  0  0
 27 43  1  0  0  0
M  END
> <s_m_entry_id>
749

> <i_f3d_flags>
0

> <r_lp_tautomer_probability>
1

> <r_epik_Ionization_Penalty>
  0.0000

> <r_epik_State_Penalty>
  0.0000

> <i_epik_Tot_Q>
0

> <s_m_job_name>
glide-dock_SP_p38_all_ligs_no_cons_10_poses

> <r_i_docking_score>
-7.84585905275683

> <r_i_glide_gscore>
-7.84585905275683

> <r_i_glide_emodel>
-60.8205728228515

$$$$
lig_p38a_2n
                    3D
 Schrodinger Suite 2021-4.
 53 56  0  0  1  0            999 V2000
   32.9597   34.3445   14.4719 F   0  0  0  0  0  0
   33.6422   34.7493   15.5686 C   0  0  0  0  0  0
   32.9529   35.1493   16.7229 C   0  0  0  0  0  0
   33.6548   35.4929   17.8934 C   0  0  0  0  0  0
   35.0716   35.5493   17.8869 C   0  0  0  0  0  0
   35.7516   35.2501   16.6870 C   0  0  0  0  0  0
   37.0996   35.3618   16.6223 F   0  0  0  0  0  0
   35.0455   34.7937   15.5602 C   0  0  0  0  0  0
   35.8350   35.8781   18.9860 O   0  0  0  0  0  0
   35.2255   36.3087   20.1328 C   0  0  0  0  0  0
   35.2616   37.6187   20.4159 C   0  0  0  0  0  0
   34.5946   35.3357   21.0369 C   0  0  0  0  0  0
   34.6086   34.1294   20.7767 O   0  0  0  0  0  0
   33.9919   35.8351   22.1620 N   0  0  0  0  0  0
   33.3598   34.8817   23.1042 C   0  0  0  0  0  0
   31.8840   34.5416   22.7807 C   0  0  0  0  0  0
   31.6717   33.6490   21.5408 C   0  0  0  0  0  0
   30.3486   33.1567   21.4891 O   0  0  0  0  0  0
   34.0100   37.2390   22.5072 C   0  0  0  0  0  0
   34.6554   38.1336   21.6268 C   0  0  0  0  0  0
   33.4556   37.7324   23.6413 N   0  0  0  0  0  0
   33.5531   39.0432   23.8857 C   0  0  0  0  0  0
   34.1521   39.9481   23.1170 N   0  0  0  0  0  0
   34.6986   39.4937   21.9773 C   0  0  0  0  0  0
   33.0060   39.5491   25.0461 N   0  0  0  0  0  0
   32.5491   38.7469   26.1743 C   0  0  0  0  0  0
   32.4480   39.6155   27.4351 C   0  0  0  0  0  0
   31.9174   38.7972   28.6223 C   0  0  0  0  0  0
   30.6583   38.2249   28.2888 O   0  0  0  0  0  0
   30.7305   37.3276   27.1859 C   0  0  0  0  0  0
   31.1800   38.0869   25.9262 C   0  0  0  0  0  0
   31.8735   35.1493   16.7347 H   0  0  0  0  0  0
   33.0765   35.7424   18.7696 H   0  0  0  0  0  0
   35.5918   34.4879   14.6893 H   0  0  0  0  0  0
   35.7438   38.3171   19.7471 H   0  0  0  0  0  0
   33.9385   33.9583   23.1711 H   0  0  0  0  0  0
   33.4067   35.2771   24.1189 H   0  0  0  0  0  0
   31.4735   34.0183   23.6453 H   0  0  0  0  0  0
   31.3010   35.4586   22.6892 H   0  0  0  0  0  0
   31.8706   34.2040   20.6237 H   0  0  0  0  0  0
   32.3481   32.7943   21.5595 H   0  0  0  0  0  0
   30.2189   32.7493   20.6216 H   0  0  0  0  0  0
   35.1907   40.2215   21.3552 H   0  0  0  0  0  0
   33.2045   40.5252   25.2341 H   0  0  0  0  0  0
   33.2895   37.9651   26.3515 H   0  0  0  0  0  0
   33.4175   40.0494   27.6830 H   0  0  0  0  0  0
   31.7695   40.4469   27.2467 H   0  0  0  0  0  0
   32.6233   38.0143   28.9032 H   0  0  0  0  0  0
   31.7905   39.4406   29.4933 H   0  0  0  0  0  0
   31.4174   36.5106   27.4119 H   0  0  0  0  0  0
   29.7525   36.8764   27.0315 H   0  0  0  0  0  0
   30.4360   38.8436   25.6730 H   0  0  0  0  0  0
   31.2230   37.3974   25.0832 H   0  0  0  0  0  0
  1  2  1  0  0  0
  2  8  1  0  0  0
  2  3  2  0  0  0
  3  4  1  0  0  0
  3 32  1  0  0  0
  4  5  2  0  0  0
  4 33  1  0  0  0
  5  6  1  0  0  0
  5  9  1  0  0  0
  6  7  1  0  0  0
  6  8  2  0  0  0
  8 34  1  0  0  0
  9 10  1  0  0  0
 10 11  2  0  0  0
 10 12  1  0  0  0
 11 20  1  0  0  0
 11 35  1  0  0  0
 12 13  2  0  0  0
 12 14  1  0  0  0
 14 15  1  0  0  0
 14 19  1  0  0  0
 15 16  1  0  0  0
 15 36  1  0  0  0
 15 37  1  0  0  0
 16 17  1  0  0  0
 16 38  1  0  0  0
 16 39  1  0  0  0
 17 18  1  0  0  0
 17 40  1  0  0  0
 17 41  1  0  0  0
 18 42  1  0  0  0
 19 20  1  0  0  0
 19 21  2  0  0  0
 20 24  2  0  0  0
 21 22  1  0  0  0
 22 23  2  0  0  0
 22 25  1  0  0  0
 23 24  1  0  0  0
 24 43  1  0  0  0
 25 26  1  0  0  0
 25 44  1  0  0  0
 26 31  1  0  0  0
 26 27  1  0  0  0
 26 45  1  0  0  0
 27 28  1  0  0  0
 27 46  1  0  0  0
 27 47  1  0  0  0
 28 29  1  0  0  0
 28 48  1  0  0  0
 28 49  1  0  0  0
 29 30  1  0  0  0
 30 31  1  0  0  0
 30 50  1  0  0  0
 30 51  1  0  0  0
 31 52  1  0  0  0
 31 53  1  0  0  0
M  END
> <s_m_entry_id>
734

> <i_f3d_flags>
0

> <r_lp_tautomer_probability>
1

> <r_epik_Ionization_Penalty>
  0.0000

> <r_epik_State_Penalty>
  0.0000

> <i_epik_Tot_Q>
0

> <s_m_job_name>
glide-dock_SP_p38_all_ligs_no_cons_10_poses

> <r_i_docking_score>
-7.49576469849167

> <r_i_glide_gscore>
-7.49576469849167

> <r_i_glide_emodel>
-63.6846654377784

$$$$
lig_p38a_2ff
                    3D
 Schrodinger Suite 2021-4.
 49 52  0  0  1  0            999 V2000
   38.9517   36.3495   15.9127 F   0  0  0  0  0  0
   37.9033   36.0854   16.7173 C   0  0  0  0  0  0
   38.0514   36.1515   18.1136 C   0  0  0  0  0  0
   36.9363   35.9569   18.9503 C   0  0  0  0  0  0
   37.1197   35.9845   20.2887 F   0  0  0  0  0  0
   35.6634   35.6712   18.3886 C   0  0  0  0  0  0
   35.5452   35.5483   16.9912 C   0  0  0  0  0  0
   36.6540   35.7725   16.1584 C   0  0  0  0  0  0
   34.5277   35.4328   19.1254 O   0  0  0  0  0  0
   34.3635   36.0267   20.3476 C   0  0  0  0  0  0
   34.3988   37.3673   20.4852 C   0  0  0  0  0  0
   34.1481   35.1364   21.4898 C   0  0  0  0  0  0
   34.1525   33.9148   21.3450 O   0  0  0  0  0  0
   33.9729   35.7257   22.7080 N   0  0  0  0  0  0
   33.7515   34.8844   23.8959 C   0  0  0  0  0  0
   34.0421   37.1428   22.9130 C   0  0  0  0  0  0
   34.2538   37.9800   21.7974 C   0  0  0  0  0  0
   33.9288   37.6893   24.1424 N   0  0  0  0  0  0
   34.0323   39.0107   24.2598 C   0  0  0  0  0  0
   34.2353   39.8811   23.2711 N   0  0  0  0  0  0
   34.3426   39.3657   22.0295 C   0  0  0  0  0  0
   33.9567   39.5492   25.5241 N   0  0  0  0  0  0
   33.3713   38.8994   26.6886 C   0  0  2  0  0  0
   31.8484   39.1413   26.7411 C   0  0  0  0  0  0
   31.2216   38.5300   28.0059 C   0  0  0  0  0  0
   31.9098   39.0559   29.2783 C   0  0  1  0  0  0
   31.3424   38.4337   30.4110 O   0  0  0  0  0  0
   33.4214   38.7845   29.2306 C   0  0  0  0  0  0
   34.0466   39.4131   27.9744 C   0  0  0  0  0  0
   33.5506   37.8249   26.6275 H   0  0  0  0  0  0
   31.7541   40.1304   29.3760 H   0  0  0  0  0  0
   39.0224   36.3498   18.5424 H   0  0  0  0  0  0
   34.5854   35.3130   16.5535 H   0  0  0  0  0  0
   36.5391   35.7222   15.0888 H   0  0  0  0  0  0
   34.5548   38.0119   19.6323 H   0  0  0  0  0  0
   34.6347   34.9073   24.5352 H   0  0  0  0  0  0
   32.9088   35.2602   24.4774 H   0  0  0  0  0  0
   33.5312   33.8381   23.6798 H   0  0  0  0  0  0
   34.5131   40.0620   21.2218 H   0  0  0  0  0  0
   34.0011   40.5634   25.5607 H   0  0  0  0  0  0
   31.6461   40.2133   26.7174 H   0  0  0  0  0  0
   31.3701   38.7183   25.8568 H   0  0  0  0  0  0
   31.3085   37.4432   27.9614 H   0  0  0  0  0  0
   30.1538   38.7479   28.0346 H   0  0  0  0  0  0
   30.4180   38.6472   30.4407 H   0  0  0  0  0  0
   33.6077   37.7094   29.2327 H   0  0  0  0  0  0
   33.9027   39.1861   30.1231 H   0  0  0  0  0  0
   35.1145   39.1921   27.9479 H   0  0  0  0  0  0
   33.9569   40.4996   28.0317 H   0  0  0  0  0  0
  1  2  1  0  0  0
  2  8  1  0  0  0
  2  3  2  0  0  0
  3  4  1  0  0  0
  3 32  1  0  0  0
  4  5  1  0  0  0
  4  6  2  0  0  0
  6  7  1  0  0  0
  6  9  1  0  0  0
  7  8  2  0  0  0
  7 33  1  0  0  0
  8 34  1  0  0  0
  9 10  1  0  0  0
 10 11  2  0  0  0
 10 12  1  0  0  0
 11 17  1  0  0  0
 11 35  1  0  0  0
 12 13  2  0  0  0
 12 14  1  0  0  0
 14 15  1  0  0  0
 14 16  1  0  0  0
 15 36  1  0  0  0
 15 37  1  0  0  0
 15 38  1  0  0  0
 16 17  1  0  0  0
 16 18  2  0  0  0
 17 21  2  0  0  0
 18 19  1  0  0  0
 19 20  2  0  0  0
 19 22  1  0  0  0
 20 21  1  0  0  0
 21 39  1  0  0  0
 22 23  1  0  0  0
 22 40  1  0  0  0
 23 30  1  0  0  0
 23 29  1  0  0  0
 23 24  1  0  0  0
 24 25  1  0  0  0
 24 41  1  0  0  0
 24 42  1  0  0  0
 25 26  1  0  0  0
 25 43  1  0  0  0
 25 44  1  0  0  0
 26 31  1  0  0  0
 26 27  1  0  0  0
 26 28  1  0  0  0
 27 45  1  0  0  0
 28 29  1  0  0  0
 28 46  1  0  0  0
 28 47  1  0  0  0
 29 48  1  0  0  0
 29 49  1  0  0  0
M  END
> <s_m_entry_id>
735

> <i_f3d_flags>
0

> <r_lp_tautomer_probability>
1

> <r_epik_Ionization_Penalty>
  0.0000

> <r_epik_State_Penalty>
  0.0000

> <i_epik_Tot_Q>
0

> <s_m_job_name>
glide-dock_SP_p38_all_ligs_no_cons_10_poses

> <r_i_docking_score>
-7.91577835904475

> <r_i_glide_gscore>
-7.91577835904475

> <r_i_glide_emodel>
-64.64891279674

$$$$
lig_p38a_2x
                    3D
 Schrodinger Suite 2021-4.
 43 46  0  0  1  0            999 V2000
   38.9521   36.1453   16.2894 F   0  0  0  0  0  0
   37.7992   35.9494   16.9599 C   0  0  0  0  0  0
   36.6414   35.5805   16.2556 C   0  0  0  0  0  0
   35.4292   35.4000   16.9435 C   0  0  0  0  0  0
   34.3276   35.0151   16.2581 F   0  0  0  0  0  0
   35.3652   35.5862   18.3406 C   0  0  0  0  0  0
   36.5413   35.9493   19.0459 C   0  0  0  0  0  0
   37.7522   36.1347   18.3547 C   0  0  0  0  0  0
   34.1588   35.3664   18.9640 O   0  0  0  0  0  0
   33.9004   35.9664   20.1685 C   0  0  0  0  0  0
   34.0163   37.3021   20.3186 C   0  0  0  0  0  0
   33.5027   35.0965   21.2792 C   0  0  0  0  0  0
   33.5106   33.8681   21.1664 O   0  0  0  0  0  0
   33.1653   35.7165   22.4485 N   0  0  0  0  0  0
   32.6743   34.8899   23.5625 C   0  0  0  0  0  0
   33.3528   37.1223   22.6800 C   0  0  0  0  0  0
   33.7865   37.9296   21.6093 C   0  0  0  0  0  0
   33.1507   37.6880   23.8892 N   0  0  0  0  0  0
   33.3814   38.9924   24.0365 C   0  0  0  0  0  0
   33.8272   39.8233   23.0955 N   0  0  0  0  0  0
   34.0217   39.2937   21.8703 C   0  0  0  0  0  0
   33.1286   39.5492   25.2744 N   0  0  0  0  0  0
   32.6330   38.7881   26.4172 C   0  0  2  0  0  0
   31.1692   38.3944   26.3173 C   0  0  0  0  0  0
   30.8248   38.0871   27.7742 C   0  0  0  0  0  0
   31.7527   38.8297   28.5641 O   0  0  0  0  0  0
   32.6249   39.5756   27.7207 C   0  0  0  0  0  0
   33.2432   37.8929   26.5508 H   0  0  0  0  0  0
   36.6847   35.4392   15.1868 H   0  0  0  0  0  0
   36.5320   36.0803   20.1181 H   0  0  0  0  0  0
   38.6470   36.4172   18.8905 H   0  0  0  0  0  0
   34.3044   37.9332   19.4902 H   0  0  0  0  0  0
   32.0031   35.4443   24.2186 H   0  0  0  0  0  0
   32.1060   34.0223   23.2238 H   0  0  0  0  0  0
   33.5122   34.5333   24.1619 H   0  0  0  0  0  0
   34.3774   39.9603   21.0987 H   0  0  0  0  0  0
   33.3517   40.5312   25.4038 H   0  0  0  0  0  0
   30.5676   39.2310   25.9592 H   0  0  0  0  0  0
   30.9907   37.5448   25.6576 H   0  0  0  0  0  0
   29.7952   38.3481   28.0197 H   0  0  0  0  0  0
   30.9609   37.0260   27.9866 H   0  0  0  0  0  0
   33.6170   39.6813   28.1598 H   0  0  0  0  0  0
   32.2072   40.5720   27.5721 H   0  0  0  0  0  0
  1  2  1  0  0  0
  2  8  1  0  0  0
  2  3  2  0  0  0
  3  4  1  0  0  0
  3 29  1  0  0  0
  4  5  1  0  0  0
  4  6  2  0  0  0
  6  7  1  0  0  0
  6  9  1  0  0  0
  7  8  2  0  0  0
  7 30  1  0  0  0
  8 31  1  0  0  0
  9 10  1  0  0  0
 10 11  2  0  0  0
 10 12  1  0  0  0
 11 17  1  0  0  0
 11 32  1  0  0  0
 12 13  2  0  0  0
 12 14  1  0  0  0
 14 15  1  0  0  0
 14 16  1  0  0  0
 15 33  1  0  0  0
 15 34  1  0  0  0
 15 35  1  0  0  0
 16 17  1  0  0  0
 16 18  2  0  0  0
 17 21  2  0  0  0
 18 19  1  0  0  0
 19 20  2  0  0  0
 19 22  1  0  0  0
 20 21  1  0  0  0
 21 36  1  0  0  0
 22 23  1  0  0  0
 22 37  1  0  0  0
 23 28  1  0  0  0
 23 27  1  0  0  0
 23 24  1  0  0  0
 24 25  1  0  0  0
 24 38  1  0  0  0
 24 39  1  0  0  0
 25 26  1  0  0  0
 25 40  1  0  0  0
 25 41  1  0  0  0
 26 27  1  0  0  0
 27 42  1  0  0  0
 27 43  1  0  0  0
M  END
> <s_m_entry_id>
736

> <i_f3d_flags>
0

> <r_lp_tautomer_probability>
1

> <r_epik_Ionization_Penalty>
  0.0000

> <r_epik_State_Penalty>
  0.0000

> <i_epik_Tot_Q>
0

> <s_m_job_name>
glide-dock_SP_p38_all_ligs_no_cons_10_poses

> <r_i_docking_score>
-7.23057367496032

> <r_i_glide_gscore>
-7.23057367496032

> <r_i_glide_emodel>
-54.7189789462517

$$$$
lig_p38a_3flw
                    3D
 Schrodinger Suite 2021-4.
 49 51  0  0  1  0            999 V2000
   38.9520   36.3499   15.8893 F   0  0  0  0  0  0
   37.9227   36.0830   16.7109 C   0  0  0  0  0  0
   36.6663   35.7692   16.1693 C   0  0  0  0  0  0
   35.5767   35.5493   17.0273 C   0  0  0  0  0  0
   34.3918   35.1493   16.5068 F   0  0  0  0  0  0
   35.7220   35.6905   18.4232 C   0  0  0  0  0  0
   37.0041   35.9628   18.9631 C   0  0  0  0  0  0
   38.1040   36.1455   18.1042 C   0  0  0  0  0  0
   34.6107   35.4930   19.2079 O   0  0  0  0  0  0
   34.5657   36.0710   20.4473 C   0  0  0  0  0  0
   34.5421   37.4121   20.5850 C   0  0  0  0  0  0
   34.5519   35.1713   21.6015 C   0  0  0  0  0  0
   34.5415   33.9492   21.4505 O   0  0  0  0  0  0
   34.5850   35.7555   22.8347 N   0  0  0  0  0  0
   34.6574   34.9090   24.0382 C   0  0  0  0  0  0
   34.5176   37.1742   23.0342 C   0  0  0  0  0  0
   34.5005   38.0200   21.9069 C   0  0  0  0  0  0
   34.4445   37.7128   24.2682 N   0  0  0  0  0  0
   34.2995   39.0312   24.3841 C   0  0  0  0  0  0
   34.3092   39.9127   23.3831 N   0  0  0  0  0  0
   34.4108   39.4076   22.1362 C   0  0  0  0  0  0
   34.0787   39.5492   25.6475 N   0  0  0  0  0  0
   33.5726   38.7985   26.8035 C   0  0  0  0  0  0
   34.6704   37.9339   27.4719 C   0  0  0  0  0  0
   34.2884   37.4505   28.8863 C   0  0  0  0  0  0
   35.3521   36.7494   29.4888 O   0  0  0  0  0  0
   32.2756   38.0002   26.4929 C   0  0  0  0  0  0
   31.0266   38.8625   26.3053 C   0  0  0  0  0  0
   31.0074   39.5492   25.0709 O   0  0  0  0  0  0
   36.5384   35.6997   15.0990 H   0  0  0  0  0  0
   37.1592   36.0334   20.0300 H   0  0  0  0  0  0
   39.0835   36.3496   18.5111 H   0  0  0  0  0  0
   34.5554   38.0615   19.7218 H   0  0  0  0  0  0
   34.8836   33.8585   23.8453 H   0  0  0  0  0  0
   35.4369   35.2708   24.7108 H   0  0  0  0  0  0
   33.7086   34.9473   24.5756 H   0  0  0  0  0  0
   34.3957   40.1139   21.3189 H   0  0  0  0  0  0
   33.9346   40.5551   25.6753 H   0  0  0  0  0  0
   33.3079   39.5657   27.5321 H   0  0  0  0  0  0
   35.5857   38.5233   27.5450 H   0  0  0  0  0  0
   34.9107   37.0759   26.8440 H   0  0  0  0  0  0
   33.4305   36.7808   28.8688 H   0  0  0  0  0  0
   34.0262   38.2976   29.5208 H   0  0  0  0  0  0
   35.5863   36.0151   28.9358 H   0  0  0  0  0  0
   32.3883   37.3152   25.6544 H   0  0  0  0  0  0
   32.0466   37.3530   27.3363 H   0  0  0  0  0  0
   30.1517   38.2204   26.3516 H   0  0  0  0  0  0
   30.9519   39.5678   27.1284 H   0  0  0  0  0  0
   30.2655   40.1402   25.0788 H   0  0  0  0  0  0
  1  2  1  0  0  0
  2  8  1  0  0  0
  2  3  2  0  0  0
  3  4  1  0  0  0
  3 30  1  0  0  0
  4  5  1  0  0  0
  4  6  2  0  0  0
  6  7  1  0  0  0
  6  9  1  0  0  0
  7  8  2  0  0  0
  7 31  1  0  0  0
  8 32  1  0  0  0
  9 10  1  0  0  0
 10 11  2  0  0  0
 10 12  1  0  0  0
 11 17  1  0  0  0
 11 33  1  0  0  0
 12 13  2  0  0  0
 12 14  1  0  0  0
 14 15  1  0  0  0
 14 16  1  0  0  0
 15 34  1  0  0  0
 15 35  1  0  0  0
 15 36  1  0  0  0
 16 17  1  0  0  0
 16 18  2  0  0  0
 17 21  2  0  0  0
 18 19  1  0  0  0
 19 20  2  0  0  0
 19 22  1  0  0  0
 20 21  1  0  0  0
 21 37  1  0  0  0
 22 23  1  0  0  0
 22 38  1  0  0  0
 23 24  1  0  0  0
 23 27  1  0  0  0
 23 39  1  0  0  0
 24 25  1  0  0  0
 24 40  1  0  0  0
 24 41  1  0  0  0
 25 26  1  0  0  0
 25 42  1  0  0  0
 25 43  1  0  0  0
 26 44  1  0  0  0
 27 28  1  0  0  0
 27 45  1  0  0  0
 27 46  1  0  0  0
 28 29  1  0  0  0
 28 47  1  0  0  0
 28 48  1  0  0  0
 29 49  1  0  0  0
M  END
> <s_m_entry_id>
737

> <i_f3d_flags>
0

> <r_lp_tautomer_probability>
1

> <r_epik_Ionization_Penalty>
  0.0000

> <r_epik_State_Penalty>
  0.0000

> <i_epik_Tot_Q>
0

> <s_m_job_name>
glide-dock_SP_p38_all_ligs_no_cons_10_poses

> <r_i_docking_score>
-8.05029659370594

> <r_i_glide_gscore>
-8.05029659370594

> <r_i_glide_emodel>
-67.8528112987822

$$$$
lig_p38a_3flz
                    3D
 Schrodinger Suite 2021-4.
 46 49  0  0  1  0            999 V2000
   36.9464   36.0304   18.9446 C   0  0  0  0  0  0
   38.1520   36.1342   18.2243 C   0  0  0  0  0  0
   38.1641   35.9494   16.8302 C   0  0  0  0  0  0
   36.9685   35.6506   16.1542 C   0  0  0  0  0  0
   35.7592   35.5493   16.8698 C   0  0  0  0  0  0
   35.7347   35.7487   18.2646 C   0  0  0  0  0  0
   34.5248   35.6058   18.9037 O   0  0  0  0  0  0
   34.3603   36.1446   20.1501 C   0  0  0  0  0  0
   34.1525   35.2146   21.2659 C   0  0  0  0  0  0
   34.1527   33.9936   21.0897 O   0  0  0  0  0  0
   33.9977   35.7760   22.5019 N   0  0  0  0  0  0
   33.8117   34.9090   23.6766 C   0  0  0  0  0  0
   34.3961   37.4794   20.3271 C   0  0  0  0  0  0
   34.2420   38.0600   21.6511 C   0  0  0  0  0  0
   34.0368   37.1922   22.7411 C   0  0  0  0  0  0
   34.2962   39.4426   21.9133 C   0  0  0  0  0  0
   34.1522   39.9323   23.1638 N   0  0  0  0  0  0
   33.9440   39.0381   24.1285 C   0  0  0  0  0  0
   33.8882   37.7144   23.9778 N   0  0  0  0  0  0
   33.7588   39.5492   25.3974 N   0  0  0  0  0  0
   33.3282   38.7573   26.5478 C   0  0  0  0  0  0
   34.4921   37.9894   27.2054 C   0  0  0  0  0  0
   35.3794   38.9209   28.0464 C   0  0  0  0  0  0
   34.5899   39.5694   29.0331 O   0  0  0  0  0  0
   33.6059   40.4251   28.4660 C   0  0  0  0  0  0
   32.6161   39.6246   27.6010 C   0  0  0  0  0  0
   36.9708   36.1636   20.0164 H   0  0  0  0  0  0
   39.0750   36.3493   18.7436 H   0  0  0  0  0  0
   39.0934   36.0320   16.2871 H   0  0  0  0  0  0
   36.9807   35.5040   15.0891 H   0  0  0  0  0  0
   34.8419   35.3263   16.3452 H   0  0  0  0  0  0
   34.6502   35.0277   24.3642 H   0  0  0  0  0  0
   32.9030   35.1926   24.2089 H   0  0  0  0  0  0
   33.7265   33.8434   23.4561 H   0  0  0  0  0  0
   34.5514   38.1466   19.4931 H   0  0  0  0  0  0
   34.4554   40.1591   21.1208 H   0  0  0  0  0  0
   33.7519   40.5604   25.4893 H   0  0  0  0  0  0
   32.6007   38.0312   26.1802 H   0  0  0  0  0  0
   34.0853   37.2167   27.8587 H   0  0  0  0  0  0
   35.0913   37.4678   26.4575 H   0  0  0  0  0  0
   36.1523   38.3499   28.5578 H   0  0  0  0  0  0
   35.8902   39.6545   27.4210 H   0  0  0  0  0  0
   33.0744   40.9173   29.2795 H   0  0  0  0  0  0
   34.0943   41.2098   27.8897 H   0  0  0  0  0  0
   31.8970   40.2965   27.1287 H   0  0  0  0  0  0
   32.0363   38.9727   28.2553 H   0  0  0  0  0  0
  1  6  1  0  0  0
  1  2  2  0  0  0
  1 27  1  0  0  0
  2  3  1  0  0  0
  2 28  1  0  0  0
  3  4  2  0  0  0
  3 29  1  0  0  0
  4  5  1  0  0  0
  4 30  1  0  0  0
  5  6  2  0  0  0
  5 31  1  0  0  0
  6  7  1  0  0  0
  7  8  1  0  0  0
  8  9  1  0  0  0
  8 13  2  0  0  0
  9 10  2  0  0  0
  9 11  1  0  0  0
 11 15  1  0  0  0
 11 12  1  0  0  0
 12 32  1  0  0  0
 12 33  1  0  0  0
 12 34  1  0  0  0
 13 14  1  0  0  0
 13 35  1  0  0  0
 14 15  2  0  0  0
 14 16  1  0  0  0
 15 19  1  0  0  0
 16 17  2  0  0  0
 16 36  1  0  0  0
 17 18  1  0  0  0
 18 19  2  0  0  0
 18 20  1  0  0  0
 20 21  1  0  0  0
 20 37  1  0  0  0
 21 26  1  0  0  0
 21 22  1  0  0  0
 21 38  1  0  0  0
 22 23  1  0  0  0
 22 39  1  0  0  0
 22 40  1  0  0  0
 23 24  1  0  0  0
 23 41  1  0  0  0
 23 42  1  0  0  0
 24 25  1  0  0  0
 25 26  1  0  0  0
 25 43  1  0  0  0
 25 44  1  0  0  0
 26 45  1  0  0  0
 26 46  1  0  0  0
M  END
> <s_m_entry_id>
738

> <i_f3d_flags>
0

> <r_lp_tautomer_probability>
1

> <r_epik_Ionization_Penalty>
  0.0000

> <r_epik_State_Penalty>
  0.0000

> <i_epik_Tot_Q>
0

> <s_m_job_name>
glide-dock_SP_p38_all_ligs_no_cons_10_poses

> <r_i_docking_score>
-7.54863180272057

> <r_i_glide_gscore>
-7.54863180272057

> <r_i_glide_emodel>
-63.7529816291449

$$$$
lig_p38a_2y
                    3D
 Schrodinger Suite 2021-4.
 45 47  0  0  1  0            999 V2000
   38.5610   36.1759   15.8890 F   0  0  0  0  0  0
   37.5344   35.9677   16.7334 C   0  0  0  0  0  0
   36.3279   35.4438   16.2434 C   0  0  0  0  0  0
   35.2359   35.2751   17.1103 C   0  0  0  0  0  0
   34.0862   34.7495   16.6301 F   0  0  0  0  0  0
   35.3308   35.6552   18.4663 C   0  0  0  0  0  0
   36.5616   36.1647   18.9580 C   0  0  0  0  0  0
   37.6555   36.3282   18.0903 C   0  0  0  0  0  0
   34.2111   35.4943   19.2506 O   0  0  0  0  0  0
   34.1969   36.0514   20.4987 C   0  0  0  0  0  0
   34.0636   37.3836   20.6453 C   0  0  0  0  0  0
   34.3877   35.1578   21.6408 C   0  0  0  0  0  0
   34.5516   33.9494   21.4742 O   0  0  0  0  0  0
   34.4151   35.7383   22.8774 N   0  0  0  0  0  0
   34.6217   34.9020   24.0726 C   0  0  0  0  0  0
   34.2763   37.1508   23.0856 C   0  0  0  0  0  0
   34.1108   37.9897   21.9631 C   0  0  0  0  0  0
   34.3109   37.6938   24.3211 N   0  0  0  0  0  0
   34.1820   39.0131   24.4335 C   0  0  0  0  0  0
   34.0656   39.8877   23.4364 N   0  0  0  0  0  0
   34.0194   39.3748   22.1903 C   0  0  0  0  0  0
   34.1508   39.5493   25.6982 N   0  0  0  0  0  0
   34.4965   38.8144   26.9080 C   0  0  0  0  0  0
   34.0806   39.5624   28.1913 C   0  0  0  0  0  0
   34.4468   38.7340   29.4330 C   0  0  0  0  0  0
   34.8314   40.7583   28.2760 O   0  0  0  0  0  0
   32.5827   39.9129   28.2064 C   0  0  0  0  0  0
   36.2383   35.1770   15.1992 H   0  0  0  0  0  0
   36.6803   36.4522   19.9917 H   0  0  0  0  0  0
   38.5795   36.7434   18.4609 H   0  0  0  0  0  0
   33.9387   38.0294   19.7903 H   0  0  0  0  0  0
   34.7306   33.8330   23.8748 H   0  0  0  0  0  0
   35.5221   35.2228   24.6010 H   0  0  0  0  0  0
   33.7777   35.0136   24.7558 H   0  0  0  0  0  0
   33.9067   40.0730   21.3743 H   0  0  0  0  0  0
   34.0496   40.5575   25.7532 H   0  0  0  0  0  0
   35.5706   38.6193   26.9090 H   0  0  0  0  0  0
   34.0012   37.8425   26.8886 H   0  0  0  0  0  0
   33.8984   37.7900   29.4486 H   0  0  0  0  0  0
   34.2064   39.2668   30.3546 H   0  0  0  0  0  0
   35.5130   38.4988   29.4574 H   0  0  0  0  0  0
   34.5547   41.3384   27.5812 H   0  0  0  0  0  0
   31.9694   39.0190   28.0887 H   0  0  0  0  0  0
   32.2984   40.3820   29.1474 H   0  0  0  0  0  0
   32.3191   40.6008   27.4025 H   0  0  0  0  0  0
  1  2  1  0  0  0
  2  8  1  0  0  0
  2  3  2  0  0  0
  3  4  1  0  0  0
  3 28  1  0  0  0
  4  5  1  0  0  0
  4  6  2  0  0  0
  6  7  1  0  0  0
  6  9  1  0  0  0
  7  8  2  0  0  0
  7 29  1  0  0  0
  8 30  1  0  0  0
  9 10  1  0  0  0
 10 11  2  0  0  0
 10 12  1  0  0  0
 11 17  1  0  0  0
 11 31  1  0  0  0
 12 13  2  0  0  0
 12 14  1  0  0  0
 14 15  1  0  0  0
 14 16  1  0  0  0
 15 32  1  0  0  0
 15 33  1  0  0  0
 15 34  1  0  0  0
 16 17  1  0  0  0
 16 18  2  0  0  0
 17 21  2  0  0  0
 18 19  1  0  0  0
 19 20  2  0  0  0
 19 22  1  0  0  0
 20 21  1  0  0  0
 21 35  1  0  0  0
 22 23  1  0  0  0
 22 36  1  0  0  0
 23 24  1  0  0  0
 23 37  1  0  0  0
 23 38  1  0  0  0
 24 25  1  0  0  0
 24 26  1  0  0  0
 24 27  1  0  0  0
 25 39  1  0  0  0
 25 40  1  0  0  0
 25 41  1  0  0  0
 26 42  1  0  0  0
 27 43  1  0  0  0
 27 44  1  0  0  0
 27 45  1  0  0  0
M  END
> <s_m_entry_id>
739

> <i_f3d_flags>
0

> <r_lp_tautomer_probability>
1

> <r_epik_Ionization_Penalty>
  0.0000

> <r_epik_State_Penalty>
  0.0000

> <i_epik_Tot_Q>
0

> <s_m_job_name>
glide-dock_SP_p38_all_ligs_no_cons_10_poses

> <r_i_docking_score>
-7.44042584580434

> <r_i_glide_gscore>
-7.44042584580434

> <r_i_glide_emodel>
-55.4830970869478

$$$$
lig_p38a_2v
                    3D
 Schrodinger Suite 2021-4.
 35 37  0  0  1  0            999 V2000
   34.1279   38.7454   26.9530 C   0  0  0  0  0  0
   34.1521   39.5493   25.7414 N   0  0  0  0  0  0
   34.1894   39.0273   24.4677 C   0  0  0  0  0  0
   34.1521   39.9109   23.4711 N   0  0  0  0  0  0
   34.1061   39.4039   22.2218 C   0  0  0  0  0  0
   34.2465   37.7024   24.3493 N   0  0  0  0  0  0
   34.2160   37.1654   23.1105 C   0  0  0  0  0  0
   34.1147   38.0152   21.9890 C   0  0  0  0  0  0
   34.2723   35.7480   22.8974 N   0  0  0  0  0  0
   34.4498   34.8930   24.0833 C   0  0  0  0  0  0
   34.1477   35.1699   21.6670 C   0  0  0  0  0  0
   34.1522   33.9493   21.5117 O   0  0  0  0  0  0
   34.0204   36.0741   20.5216 C   0  0  0  0  0  0
   34.0077   37.4132   20.6679 C   0  0  0  0  0  0
   33.8770   35.5045   19.2865 O   0  0  0  0  0  0
   34.8945   35.5528   18.3587 C   0  0  0  0  0  0
   34.5500   35.1493   17.0520 C   0  0  0  0  0  0
   35.5053   35.1493   16.0186 C   0  0  0  0  0  0
   36.2347   35.9493   18.6262 C   0  0  0  0  0  0
   36.6461   36.3016   19.8678 F   0  0  0  0  0  0
   37.1867   35.9493   17.5878 C   0  0  0  0  0  0
   36.8245   35.5537   16.2890 C   0  0  0  0  0  0
   37.7521   35.5468   15.3083 F   0  0  0  0  0  0
   34.0759   39.3897   27.8307 H   0  0  0  0  0  0
   35.0282   38.1343   27.0260 H   0  0  0  0  0  0
   33.2593   38.0860   26.9584 H   0  0  0  0  0  0
   34.0742   40.5599   25.8247 H   0  0  0  0  0  0
   34.0432   40.1118   21.4082 H   0  0  0  0  0  0
   34.7385   33.8645   23.8612 H   0  0  0  0  0  0
   35.2308   35.2908   24.7328 H   0  0  0  0  0  0
   33.5232   34.8594   24.6571 H   0  0  0  0  0  0
   33.8998   38.0655   19.8142 H   0  0  0  0  0  0
   33.5346   34.8393   16.8436 H   0  0  0  0  0  0
   35.2243   34.8397   15.0231 H   0  0  0  0  0  0
   38.2040   36.2513   17.7932 H   0  0  0  0  0  0
  1  2  1  0  0  0
  1 24  1  0  0  0
  1 25  1  0  0  0
  1 26  1  0  0  0
  2  3  1  0  0  0
  2 27  1  0  0  0
  3  4  1  0  0  0
  3  6  2  0  0  0
  4  5  2  0  0  0
  5  8  1  0  0  0
  5 28  1  0  0  0
  6  7  1  0  0  0
  7  8  2  0  0  0
  7  9  1  0  0  0
  8 14  1  0  0  0
  9 10  1  0  0  0
  9 11  1  0  0  0
 10 29  1  0  0  0
 10 30  1  0  0  0
 10 31  1  0  0  0
 11 12  2  0  0  0
 11 13  1  0  0  0
 13 14  2  0  0  0
 13 15  1  0  0  0
 14 32  1  0  0  0
 15 16  1  0  0  0
 16 17  1  0  0  0
 16 19  2  0  0  0
 17 18  2  0  0  0
 17 33  1  0  0  0
 18 22  1  0  0  0
 18 34  1  0  0  0
 19 20  1  0  0  0
 19 21  1  0  0  0
 21 22  2  0  0  0
 21 35  1  0  0  0
 22 23  1  0  0  0
M  END
> <s_m_entry_id>
740

> <i_f3d_flags>
0

> <r_lp_tautomer_probability>
1

> <r_epik_Ionization_Penalty>
  0.0000

> <r_epik_State_Penalty>
  0.0000

> <i_epik_Tot_Q>
0

> <s_m_job_name>
glide-dock_SP_p38_all_ligs_no_cons_10_poses

> <r_i_docking_score>
-7.41087951998292

> <r_i_glide_gscore>
-7.41087951998292

> <r_i_glide_emodel>
-51.480160313148

$$$$
lig_p38a_2u
                    3D
 Schrodinger Suite 2021-4.
 64 68  0  0  1  0            999 V2000
   38.9480   36.1025   16.2999 F   0  0  0  0  0  0
   37.7947   35.9522   16.9810 C   0  0  0  0  0  0
   37.7759   36.1133   18.3795 C   0  0  0  0  0  0
   36.5753   35.9473   19.0937 C   0  0  0  0  0  0
   36.6108   36.0257   20.4444 F   0  0  0  0  0  0
   35.3670   35.6543   18.4014 C   0  0  0  0  0  0
   35.3994   35.5316   16.9982 C   0  0  0  0  0  0
   36.6068   35.6690   16.2887 C   0  0  0  0  0  0
   34.1566   35.4201   19.0195 O   0  0  0  0  0  0
   33.8600   36.0238   20.2145 C   0  0  0  0  0  0
   34.0440   37.3480   20.3780 C   0  0  0  0  0  0
   33.3540   35.1710   21.2959 C   0  0  0  0  0  0
   33.2712   33.9507   21.1457 O   0  0  0  0  0  0
   33.0077   35.7924   22.4701 N   0  0  0  0  0  0
   32.3076   35.0322   23.5495 C   0  0  0  0  0  0
   30.9650   34.3978   23.1258 C   0  0  0  0  0  0
   30.2433   33.7891   24.3390 C   0  0  0  0  0  0
   31.1030   32.8290   25.0580 N   0  0  2  0  0  0
   32.4420   33.3408   25.4304 C   0  0  0  0  0  0
   33.1804   33.9584   24.2274 C   0  0  0  0  0  0
   30.8400   31.1242   24.8457 S   0  0  0  0  0  0
   31.6750   30.4116   25.8271 O   0  0  0  0  0  0
   29.3870   30.8951   24.8163 O   0  0  0  0  0  0
   31.4994   30.7827   23.1707 C   0  0  0  0  0  0
   33.3542   37.1728   22.7316 C   0  0  0  0  0  0
   33.8458   37.9650   21.6723 C   0  0  0  0  0  0
   33.2519   37.7322   23.9565 N   0  0  0  0  0  0
   33.6003   39.0066   24.1220 C   0  0  0  0  0  0
   34.0791   39.8237   23.1849 N   0  0  0  0  0  0
   34.2033   39.3015   21.9485 C   0  0  0  0  0  0
   33.4526   39.5488   25.3805 N   0  0  0  0  0  0
   32.9023   38.8468   26.5366 C   0  0  0  0  0  0
   33.1762   39.6287   27.8282 C   0  0  0  0  0  0
   32.5457   38.9186   29.0361 C   0  0  0  0  0  0
   31.1484   38.7482   28.8279 O   0  0  0  0  0  0
   30.8379   37.9471   27.6930 C   0  0  0  0  0  0
   31.3855   38.6070   26.4169 C   0  0  0  0  0  0
   38.6899   36.3480   18.9055 H   0  0  0  0  0  0
   34.4882   35.3037   16.4633 H   0  0  0  0  0  0
   36.6215   35.5664   15.2142 H   0  0  0  0  0  0
   34.4078   37.9668   19.5728 H   0  0  0  0  0  0
   32.0231   35.7219   24.3431 H   0  0  0  0  0  0
   30.3172   35.1525   22.6898 H   0  0  0  0  0  0
   31.1018   33.6334   22.3628 H   0  0  0  0  0  0
   29.9476   34.5789   25.0297 H   0  0  0  0  0  0
   29.3204   33.3049   24.0197 H   0  0  0  0  0  0
   32.3129   34.0974   26.2054 H   0  0  0  0  0  0
   33.0372   32.5482   25.8798 H   0  0  0  0  0  0
   33.4480   33.1684   23.5285 H   0  0  0  0  0  0
   34.1177   34.3999   24.5658 H   0  0  0  0  0  0
   31.3961   29.7204   22.9586 H   0  0  0  0  0  0
   30.9416   31.3539   22.4303 H   0  0  0  0  0  0
   32.5515   31.0556   23.1439 H   0  0  0  0  0  0
   34.6073   39.9449   21.1811 H   0  0  0  0  0  0
   33.6995   40.5297   25.4892 H   0  0  0  0  0  0
   33.4028   37.8798   26.6111 H   0  0  0  0  0  0
   34.2510   39.7396   27.9835 H   0  0  0  0  0  0
   32.7658   40.6380   27.7508 H   0  0  0  0  0  0
   33.0171   37.9511   29.2115 H   0  0  0  0  0  0
   32.6930   39.5127   29.9376 H   0  0  0  0  0  0
   31.2489   36.9446   27.8189 H   0  0  0  0  0  0
   29.7531   37.8419   27.6280 H   0  0  0  0  0  0
   30.8776   39.5549   26.2473 H   0  0  0  0  0  0
   31.1515   37.9762   25.5598 H   0  0  0  0  0  0
  1  2  1  0  0  0
  2  8  1  0  0  0
  2  3  2  0  0  0
  3  4  1  0  0  0
  3 38  1  0  0  0
  4  5  1  0  0  0
  4  6  2  0  0  0
  6  7  1  0  0  0
  6  9  1  0  0  0
  7  8  2  0  0  0
  7 39  1  0  0  0
  8 40  1  0  0  0
  9 10  1  0  0  0
 10 11  2  0  0  0
 10 12  1  0  0  0
 11 26  1  0  0  0
 11 41  1  0  0  0
 12 13  2  0  0  0
 12 14  1  0  0  0
 14 15  1  0  0  0
 14 25  1  0  0  0
 15 20  1  0  0  0
 15 16  1  0  0  0
 15 42  1  0  0  0
 16 17  1  0  0  0
 16 43  1  0  0  0
 16 44  1  0  0  0
 17 18  1  0  0  0
 17 45  1  0  0  0
 17 46  1  0  0  0
 18 19  1  0  0  0
 18 21  1  0  0  0
 19 20  1  0  0  0
 19 47  1  0  0  0
 19 48  1  0  0  0
 20 49  1  0  0  0
 20 50  1  0  0  0
 21 22  2  0  0  0
 21 23  2  0  0  0
 21 24  1  0  0  0
 24 51  1  0  0  0
 24 52  1  0  0  0
 24 53  1  0  0  0
 25 26  1  0  0  0
 25 27  2  0  0  0
 26 30  2  0  0  0
 27 28  1  0  0  0
 28 29  2  0  0  0
 28 31  1  0  0  0
 29 30  1  0  0  0
 30 54  1  0  0  0
 31 32  1  0  0  0
 31 55  1  0  0  0
 32 37  1  0  0  0
 32 33  1  0  0  0
 32 56  1  0  0  0
 33 34  1  0  0  0
 33 57  1  0  0  0
 33 58  1  0  0  0
 34 35  1  0  0  0
 34 59  1  0  0  0
 34 60  1  0  0  0
 35 36  1  0  0  0
 36 37  1  0  0  0
 36 61  1  0  0  0
 36 62  1  0  0  0
 37 63  1  0  0  0
 37 64  1  0  0  0
M  END
> <s_m_entry_id>
741

> <i_f3d_flags>
0

> <r_lp_tautomer_probability>
1

> <r_epik_Ionization_Penalty>
  0.0000

> <r_epik_State_Penalty>
  0.0000

> <i_epik_Tot_Q>
0

> <s_m_job_name>
glide-dock_SP_p38_all_ligs_no_cons_10_poses

> <r_i_docking_score>
-7.98692595902531

> <r_i_glide_gscore>
-7.98692595902531

> <r_i_glide_emodel>
-80.1291042954735

$$$$
lig_p38a_2p
                    3D
 Schrodinger Suite 2021-4.
 58 61  0  0  1  0            999 V2000
   32.9386   34.4727   14.5660 F   0  0  0  0  0  0
   33.6335   34.8449   15.6659 C   0  0  0  0  0  0
   35.0327   34.9622   15.6187 C   0  0  0  0  0  0
   35.7510   35.3665   16.7632 C   0  0  0  0  0  0
   37.0914   35.5458   16.6855 F   0  0  0  0  0  0
   35.0871   35.5489   17.9973 C   0  0  0  0  0  0
   33.6745   35.4463   18.0294 C   0  0  0  0  0  0
   32.9570   35.1493   16.8560 C   0  0  0  0  0  0
   35.8565   35.8235   19.1095 O   0  0  0  0  0  0
   35.2681   36.2811   20.2608 C   0  0  0  0  0  0
   35.3522   37.5912   20.5441 C   0  0  0  0  0  0
   34.6107   35.3317   21.1756 C   0  0  0  0  0  0
   34.5517   34.1293   20.9082 O   0  0  0  0  0  0
   34.0574   35.8581   22.3136 N   0  0  0  0  0  0
   33.2429   34.9930   23.1917 C   0  0  0  0  0  0
   31.7408   35.2398   22.9406 C   0  0  0  0  0  0
   30.7883   34.4474   23.8535 C   0  0  0  0  0  0
   30.4716   32.7270   23.2699 S   0  0  0  0  0  0
   31.7520   32.0804   22.9527 O   0  0  0  0  0  0
   29.5385   32.0865   24.2099 O   0  0  0  0  0  0
   29.5823   33.0054   21.6955 C   0  0  0  0  0  0
   34.1550   37.2497   22.6676 C   0  0  0  0  0  0
   34.7944   38.1287   21.7714 C   0  0  0  0  0  0
   33.6377   37.7425   23.8173 N   0  0  0  0  0  0
   33.7326   39.0501   24.0530 C   0  0  0  0  0  0
   34.3157   39.9493   23.2656 N   0  0  0  0  0  0
   34.8551   39.4895   22.1213 C   0  0  0  0  0  0
   33.1711   39.5492   25.2101 N   0  0  0  0  0  0
   32.6208   38.7463   26.2970 C   0  0  0  0  0  0
   32.4395   39.6017   27.5576 C   0  0  0  0  0  0
   31.8287   38.7703   28.6965 C   0  0  0  0  0  0
   30.5897   38.2111   28.2753 O   0  0  0  0  0  0
   30.7236   37.3330   27.1632 C   0  0  0  0  0  0
   31.2613   38.1088   25.9497 C   0  0  0  0  0  0
   35.5437   34.7548   14.6910 H   0  0  0  0  0  0
   33.1068   35.6216   18.9297 H   0  0  0  0  0  0
   31.8783   35.1492   16.8883 H   0  0  0  0  0  0
   35.8512   38.2707   19.8688 H   0  0  0  0  0  0
   33.4811   33.9361   23.0684 H   0  0  0  0  0  0
   33.4875   35.2004   24.2352 H   0  0  0  0  0  0
   31.5224   36.2975   23.0912 H   0  0  0  0  0  0
   31.5166   35.0481   21.8938 H   0  0  0  0  0  0
   31.1706   34.3958   24.8730 H   0  0  0  0  0  0
   29.8173   34.9409   23.9066 H   0  0  0  0  0  0
   29.3520   32.0386   21.2501 H   0  0  0  0  0  0
   28.6597   33.5491   21.8889 H   0  0  0  0  0  0
   30.2029   33.5492   20.9873 H   0  0  0  0  0  0
   35.3401   40.2154   21.4892 H   0  0  0  0  0  0
   33.3511   40.5295   25.4024 H   0  0  0  0  0  0
   33.3358   37.9528   26.5163 H   0  0  0  0  0  0
   33.3915   40.0295   27.8752 H   0  0  0  0  0  0
   31.7747   40.4345   27.3350 H   0  0  0  0  0  0
   32.5089   37.9778   29.0123 H   0  0  0  0  0  0
   31.6488   39.4008   29.5672 H   0  0  0  0  0  0
   31.3888   36.5064   27.4172 H   0  0  0  0  0  0
   29.7524   36.8934   26.9407 H   0  0  0  0  0  0
   30.5450   38.8800   25.6624 H   0  0  0  0  0  0
   31.3481   37.4296   25.1020 H   0  0  0  0  0  0
  1  2  1  0  0  0
  2  8  1  0  0  0
  2  3  2  0  0  0
  3  4  1  0  0  0
  3 35  1  0  0  0
  4  5  1  0  0  0
  4  6  2  0  0  0
  6  7  1  0  0  0
  6  9  1  0  0  0
  7  8  2  0  0  0
  7 36  1  0  0  0
  8 37  1  0  0  0
  9 10  1  0  0  0
 10 11  2  0  0  0
 10 12  1  0  0  0
 11 23  1  0  0  0
 11 38  1  0  0  0
 12 13  2  0  0  0
 12 14  1  0  0  0
 14 15  1  0  0  0
 14 22  1  0  0  0
 15 16  1  0  0  0
 15 39  1  0  0  0
 15 40  1  0  0  0
 16 17  1  0  0  0
 16 41  1  0  0  0
 16 42  1  0  0  0
 17 18  1  0  0  0
 17 43  1  0  0  0
 17 44  1  0  0  0
 18 19  2  0  0  0
 18 20  2  0  0  0
 18 21  1  0  0  0
 21 45  1  0  0  0
 21 46  1  0  0  0
 21 47  1  0  0  0
 22 23  1  0  0  0
 22 24  2  0  0  0
 23 27  2  0  0  0
 24 25  1  0  0  0
 25 26  2  0  0  0
 25 28  1  0  0  0
 26 27  1  0  0  0
 27 48  1  0  0  0
 28 29  1  0  0  0
 28 49  1  0  0  0
 29 34  1  0  0  0
 29 30  1  0  0  0
 29 50  1  0  0  0
 30 31  1  0  0  0
 30 51  1  0  0  0
 30 52  1  0  0  0
 31 32  1  0  0  0
 31 53  1  0  0  0
 31 54  1  0  0  0
 32 33  1  0  0  0
 33 34  1  0  0  0
 33 55  1  0  0  0
 33 56  1  0  0  0
 34 57  1  0  0  0
 34 58  1  0  0  0
M  END
> <s_m_entry_id>
742

> <i_f3d_flags>
0

> <r_lp_tautomer_probability>
1

> <r_epik_Ionization_Penalty>
  0.0000

> <r_epik_State_Penalty>
  0.0000

> <i_epik_Tot_Q>
0

> <s_m_job_name>
glide-dock_SP_p38_all_ligs_no_cons_10_poses

> <r_i_docking_score>
-7.29595971695013

> <r_i_glide_gscore>
-7.29595971695013

> <r_i_glide_emodel>
-67.8321679652444

$$$$
lig_p38a_2g
                    3D
 Schrodinger Suite 2021-4.
 46 49  0  0  1  0            999 V2000
   34.8877   35.1386   16.0817 F   0  0  0  0  0  0
   35.9809   35.5504   16.7632 C   0  0  0  0  0  0
   37.2309   35.5549   16.1166 C   0  0  0  0  0  0
   38.3852   35.9523   16.8087 C   0  0  0  0  0  0
   38.2876   36.3218   18.1599 C   0  0  0  0  0  0
   37.0437   36.3396   18.8099 C   0  0  0  0  0  0
   35.8716   35.9486   18.1169 C   0  0  0  0  0  0
   34.6263   35.9029   18.7070 O   0  0  0  0  0  0
   34.4909   36.3240   20.0036 C   0  0  0  0  0  0
   34.4321   37.6401   20.2780 C   0  0  0  0  0  0
   34.4449   35.3150   21.0663 C   0  0  0  0  0  0
   34.5452   34.1122   20.8125 O   0  0  0  0  0  0
   34.3136   35.7846   22.3453 N   0  0  0  0  0  0
   34.2765   34.8394   23.4719 C   0  0  0  0  0  0
   34.2472   37.1819   22.6781 C   0  0  0  0  0  0
   34.3181   38.1238   21.6363 C   0  0  0  0  0  0
   34.1255   37.6210   23.9508 N   0  0  0  0  0  0
   34.0781   38.9362   24.1743 C   0  0  0  0  0  0
   34.1602   39.8948   23.2537 N   0  0  0  0  0  0
   34.2716   39.4896   21.9731 C   0  0  0  0  0  0
   33.9139   39.3702   25.4741 N   0  0  0  0  0  0
   33.5956   38.4864   26.5931 C   0  0  0  0  0  0
   34.8447   37.7931   27.1659 C   0  0  0  0  0  0
   34.4619   36.9261   28.3778 C   0  0  0  0  0  0
   33.8336   37.7369   29.3680 O   0  0  0  0  0  0
   32.6184   38.3330   28.9195 C   0  0  0  0  0  0
   32.8928   39.2560   27.7184 C   0  0  0  0  0  0
   37.3111   35.2399   15.0903 H   0  0  0  0  0  0
   39.3510   35.9493   16.3235 H   0  0  0  0  0  0
   39.1741   36.5786   18.7118 H   0  0  0  0  0  0
   37.0170   36.6310   19.8485 H   0  0  0  0  0  0
   34.4957   38.3800   19.4968 H   0  0  0  0  0  0
   33.3840   35.0125   24.0770 H   0  0  0  0  0  0
   34.2640   33.7848   23.1911 H   0  0  0  0  0  0
   35.1465   34.9927   24.1141 H   0  0  0  0  0  0
   34.3227   40.2612   21.2174 H   0  0  0  0  0  0
   33.8379   40.3747   25.6104 H   0  0  0  0  0  0
   32.9079   37.7171   26.2390 H   0  0  0  0  0  0
   35.3248   37.1695   26.4105 H   0  0  0  0  0  0
   35.5811   38.5388   27.4737 H   0  0  0  0  0  0
   33.7982   36.1120   28.0795 H   0  0  0  0  0  0
   35.3525   36.4666   28.8095 H   0  0  0  0  0  0
   31.8962   37.5567   28.6588 H   0  0  0  0  0  0
   32.1859   38.9062   29.7415 H   0  0  0  0  0  0
   33.5091   40.0958   28.0428 H   0  0  0  0  0  0
   31.9548   39.6803   27.3600 H   0  0  0  0  0  0
  1  2  1  0  0  0
  2  7  1  0  0  0
  2  3  2  0  0  0
  3  4  1  0  0  0
  3 28  1  0  0  0
  4  5  2  0  0  0
  4 29  1  0  0  0
  5  6  1  0  0  0
  5 30  1  0  0  0
  6  7  2  0  0  0
  6 31  1  0  0  0
  7  8  1  0  0  0
  8  9  1  0  0  0
  9 10  2  0  0  0
  9 11  1  0  0  0
 10 16  1  0  0  0
 10 32  1  0  0  0
 11 12  2  0  0  0
 11 13  1  0  0  0
 13 14  1  0  0  0
 13 15  1  0  0  0
 14 33  1  0  0  0
 14 34  1  0  0  0
 14 35  1  0  0  0
 15 16  1  0  0  0
 15 17  2  0  0  0
 16 20  2  0  0  0
 17 18  1  0  0  0
 18 19  2  0  0  0
 18 21  1  0  0  0
 19 20  1  0  0  0
 20 36  1  0  0  0
 21 22  1  0  0  0
 21 37  1  0  0  0
 22 27  1  0  0  0
 22 23  1  0  0  0
 22 38  1  0  0  0
 23 24  1  0  0  0
 23 39  1  0  0  0
 23 40  1  0  0  0
 24 25  1  0  0  0
 24 41  1  0  0  0
 24 42  1  0  0  0
 25 26  1  0  0  0
 26 27  1  0  0  0
 26 43  1  0  0  0
 26 44  1  0  0  0
 27 45  1  0  0  0
 27 46  1  0  0  0
M  END
> <s_m_entry_id>
743

> <i_f3d_flags>
0

> <r_lp_tautomer_probability>
1

> <r_epik_Ionization_Penalty>
  0.0000

> <r_epik_State_Penalty>
  0.0000

> <i_epik_Tot_Q>
0

> <s_m_job_name>
glide-dock_SP_p38_all_ligs_no_cons_10_poses

> <r_i_docking_score>
-7.34146649613147

> <r_i_glide_gscore>
-7.34146649613147

> <r_i_glide_emodel>
-55.4219069599875

$$$$
lig_p38a_2o
                    3D
 Schrodinger Suite 2021-4.
 55 58  0  0  1  0            999 V2000
   38.9521   36.4131   15.9513 F   0  0  0  0  0  0
   37.8968   36.1280   16.7386 C   0  0  0  0  0  0
   38.0182   36.1860   18.1374 C   0  0  0  0  0  0
   36.8938   35.9493   18.9496 C   0  0  0  0  0  0
   37.0513   35.9506   20.2891 F   0  0  0  0  0  0
   35.6381   35.6451   18.3619 C   0  0  0  0  0  0
   35.5433   35.5493   16.9624 C   0  0  0  0  0  0
   36.6636   35.8010   16.1560 C   0  0  0  0  0  0
   34.4996   35.3622   19.0775 O   0  0  0  0  0  0
   34.2670   35.9716   20.2816 C   0  0  0  0  0  0
   34.3943   37.3054   20.4352 C   0  0  0  0  0  0
   33.8603   35.1019   21.3864 C   0  0  0  0  0  0
   33.7510   33.8843   21.2279 O   0  0  0  0  0  0
   33.6218   35.7024   22.5908 N   0  0  0  0  0  0
   33.1959   34.8521   23.7206 C   0  0  0  0  0  0
   31.6642   34.6851   23.7660 C   0  0  0  0  0  0
   31.1796   33.2813   24.8528 S   0  0  0  0  0  0
   32.1111   33.2156   25.9884 O   0  0  0  0  0  0
   29.7315   33.3468   25.0890 O   0  0  0  0  0  0
   31.5007   31.8384   23.7654 C   0  0  0  0  0  0
   33.7781   37.1141   22.8124 C   0  0  0  0  0  0
   34.1718   37.9280   21.7299 C   0  0  0  0  0  0
   33.5670   37.6826   24.0184 N   0  0  0  0  0  0
   33.7588   38.9940   24.1507 C   0  0  0  0  0  0
   34.1521   39.8367   23.1960 N   0  0  0  0  0  0
   34.3535   39.3028   21.9739 C   0  0  0  0  0  0
   33.5341   39.5493   25.3917 N   0  0  0  0  0  0
   32.9411   38.8520   26.5276 C   0  0  0  0  0  0
   33.1548   39.6443   27.8241 C   0  0  0  0  0  0
   32.4832   38.9253   29.0042 C   0  0  0  0  0  0
   31.0962   38.7493   28.7409 O   0  0  0  0  0  0
   30.8323   37.9483   27.5940 C   0  0  0  0  0  0
   31.4324   38.6088   26.3405 C   0  0  0  0  0  0
   38.9735   36.4072   18.5881 H   0  0  0  0  0  0
   34.5960   35.3022   16.5045 H   0  0  0  0  0  0
   36.5734   35.7579   15.0891 H   0  0  0  0  0  0
   34.6821   37.9396   19.6090 H   0  0  0  0  0  0
   33.6783   33.8748   23.6681 H   0  0  0  0  0  0
   33.5468   35.2520   24.6726 H   0  0  0  0  0  0
   31.1941   35.5877   24.1575 H   0  0  0  0  0  0
   31.2384   34.4966   22.7802 H   0  0  0  0  0  0
   31.2487   30.9260   24.3033 H   0  0  0  0  0  0
   30.8873   31.9140   22.8675 H   0  0  0  0  0  0
   32.5521   31.8137   23.4891 H   0  0  0  0  0  0
   34.6684   39.9739   21.1890 H   0  0  0  0  0  0
   33.7059   40.5459   25.4890 H   0  0  0  0  0  0
   33.4416   37.8881   26.6324 H   0  0  0  0  0  0
   34.2201   39.7682   28.0223 H   0  0  0  0  0  0
   32.7347   40.6471   27.7265 H   0  0  0  0  0  0
   32.9536   37.9586   29.1909 H   0  0  0  0  0  0
   32.5945   39.5153   29.9143 H   0  0  0  0  0  0
   31.2384   36.9458   27.7365 H   0  0  0  0  0  0
   29.7522   37.8410   27.4859 H   0  0  0  0  0  0
   30.9286   39.5562   26.1514 H   0  0  0  0  0  0
   31.2444   37.9776   25.4718 H   0  0  0  0  0  0
  1  2  1  0  0  0
  2  8  1  0  0  0
  2  3  2  0  0  0
  3  4  1  0  0  0
  3 34  1  0  0  0
  4  5  1  0  0  0
  4  6  2  0  0  0
  6  7  1  0  0  0
  6  9  1  0  0  0
  7  8  2  0  0  0
  7 35  1  0  0  0
  8 36  1  0  0  0
  9 10  1  0  0  0
 10 11  2  0  0  0
 10 12  1  0  0  0
 11 22  1  0  0  0
 11 37  1  0  0  0
 12 13  2  0  0  0
 12 14  1  0  0  0
 14 15  1  0  0  0
 14 21  1  0  0  0
 15 16  1  0  0  0
 15 38  1  0  0  0
 15 39  1  0  0  0
 16 17  1  0  0  0
 16 40  1  0  0  0
 16 41  1  0  0  0
 17 18  2  0  0  0
 17 19  2  0  0  0
 17 20  1  0  0  0
 20 42  1  0  0  0
 20 43  1  0  0  0
 20 44  1  0  0  0
 21 22  1  0  0  0
 21 23  2  0  0  0
 22 26  2  0  0  0
 23 24  1  0  0  0
 24 25  2  0  0  0
 24 27  1  0  0  0
 25 26  1  0  0  0
 26 45  1  0  0  0
 27 28  1  0  0  0
 27 46  1  0  0  0
 28 33  1  0  0  0
 28 29  1  0  0  0
 28 47  1  0  0  0
 29 30  1  0  0  0
 29 48  1  0  0  0
 29 49  1  0  0  0
 30 31  1  0  0  0
 30 50  1  0  0  0
 30 51  1  0  0  0
 31 32  1  0  0  0
 32 33  1  0  0  0
 32 52  1  0  0  0
 32 53  1  0  0  0
 33 54  1  0  0  0
 33 55  1  0  0  0
M  END
> <s_m_entry_id>
744

> <i_f3d_flags>
0

> <r_lp_tautomer_probability>
1

> <r_epik_Ionization_Penalty>
  0.0000

> <r_epik_State_Penalty>
  0.0000

> <i_epik_Tot_Q>
0

> <s_m_job_name>
glide-dock_SP_p38_all_ligs_no_cons_10_poses

> <r_i_docking_score>
-7.37213781860124

> <r_i_glide_gscore>
-7.37213781860124

> <r_i_glide_emodel>
-67.493930768664

$$$$
lig_p38a_2f
                    3D
 Schrodinger Suite 2021-4.
 46 49  0  0  1  0            999 V2000
   35.9762   35.7578   16.9603 C   0  0  0  0  0  0
   37.2674   35.9474   16.4279 C   0  0  0  0  0  0
   37.4652   35.9166   15.0909 F   0  0  0  0  0  0
   38.3590   36.1590   17.2864 C   0  0  0  0  0  0
   38.1522   36.2067   18.6761 C   0  0  0  0  0  0
   36.8704   36.0194   19.2134 C   0  0  0  0  0  0
   35.7604   35.8203   18.3553 C   0  0  0  0  0  0
   34.4822   35.6555   18.8421 O   0  0  0  0  0  0
   34.1803   36.1930   20.0705 C   0  0  0  0  0  0
   34.3044   37.5188   20.2832 C   0  0  0  0  0  0
   33.7886   35.2720   21.1440 C   0  0  0  0  0  0
   33.7601   34.0534   20.9602 O   0  0  0  0  0  0
   33.5027   35.8344   22.3566 N   0  0  0  0  0  0
   33.0322   34.9771   23.4578 C   0  0  0  0  0  0
   33.6991   37.2282   22.6495 C   0  0  0  0  0  0
   34.0917   38.0866   21.6005 C   0  0  0  0  0  0
   33.5422   37.7356   23.8925 N   0  0  0  0  0  0
   33.7646   39.0368   24.0808 C   0  0  0  0  0  0
   34.1507   39.9178   23.1576 N   0  0  0  0  0  0
   34.3075   39.4433   21.9068 C   0  0  0  0  0  0
   33.5761   39.5492   25.3467 N   0  0  0  0  0  0
   32.9464   38.8500   26.4591 C   0  0  0  0  0  0
   33.1030   39.6526   27.7585 C   0  0  0  0  0  0
   32.3880   38.9453   28.9206 C   0  0  0  0  0  0
   31.0166   38.7424   28.6004 O   0  0  0  0  0  0
   30.8220   37.9236   27.4540 C   0  0  0  0  0  0
   31.4458   38.5954   26.2204 C   0  0  0  0  0  0
   35.1411   35.5854   16.2966 H   0  0  0  0  0  0
   39.3503   36.2974   16.8796 H   0  0  0  0  0  0
   38.9942   36.3490   19.3372 H   0  0  0  0  0  0
   36.7549   36.0413   20.2868 H   0  0  0  0  0  0
   34.6157   38.1794   19.4892 H   0  0  0  0  0  0
   33.8311   34.8367   24.1886 H   0  0  0  0  0  0
   32.1893   35.4442   23.9744 H   0  0  0  0  0  0
   32.6916   33.9896   23.1457 H   0  0  0  0  0  0
   34.6148   40.1505   21.1514 H   0  0  0  0  0  0
   33.7517   40.5429   25.4684 H   0  0  0  0  0  0
   33.4535   37.8899   26.5801 H   0  0  0  0  0  0
   34.1580   39.7846   27.9960 H   0  0  0  0  0  0
   32.6853   40.6545   27.6325 H   0  0  0  0  0  0
   32.8624   37.9913   29.1484 H   0  0  0  0  0  0
   32.4460   39.5610   29.8187 H   0  0  0  0  0  0
   31.2562   36.9364   27.6198 H   0  0  0  0  0  0
   29.7527   37.7729   27.3052 H   0  0  0  0  0  0
   30.9352   39.5390   26.0214 H   0  0  0  0  0  0
   31.2866   37.9641   25.3457 H   0  0  0  0  0  0
  1  7  1  0  0  0
  1  2  2  0  0  0
  1 28  1  0  0  0
  2  3  1  0  0  0
  2  4  1  0  0  0
  4  5  2  0  0  0
  4 29  1  0  0  0
  5  6  1  0  0  0
  5 30  1  0  0  0
  6  7  2  0  0  0
  6 31  1  0  0  0
  7  8  1  0  0  0
  8  9  1  0  0  0
  9 10  2  0  0  0
  9 11  1  0  0  0
 10 16  1  0  0  0
 10 32  1  0  0  0
 11 12  2  0  0  0
 11 13  1  0  0  0
 13 14  1  0  0  0
 13 15  1  0  0  0
 14 33  1  0  0  0
 14 34  1  0  0  0
 14 35  1  0  0  0
 15 16  1  0  0  0
 15 17  2  0  0  0
 16 20  2  0  0  0
 17 18  1  0  0  0
 18 19  2  0  0  0
 18 21  1  0  0  0
 19 20  1  0  0  0
 20 36  1  0  0  0
 21 22  1  0  0  0
 21 37  1  0  0  0
 22 27  1  0  0  0
 22 23  1  0  0  0
 22 38  1  0  0  0
 23 24  1  0  0  0
 23 39  1  0  0  0
 23 40  1  0  0  0
 24 25  1  0  0  0
 24 41  1  0  0  0
 24 42  1  0  0  0
 25 26  1  0  0  0
 26 27  1  0  0  0
 26 43  1  0  0  0
 26 44  1  0  0  0
 27 45  1  0  0  0
 27 46  1  0  0  0
M  END
> <s_m_entry_id>
745

> <i_f3d_flags>
0

> <r_lp_tautomer_probability>
1

> <r_epik_Ionization_Penalty>
  0.0000

> <r_epik_State_Penalty>
  0.0000

> <i_epik_Tot_Q>
0

> <s_m_job_name>
glide-dock_SP_p38_all_ligs_no_cons_10_poses

> <r_i_docking_score>
-7.8934955754794

> <r_i_glide_gscore>
-7.8934955754794

> <r_i_glide_emodel>
-62.3309907516684

$$$$
lig_p38a_2c
                    3D
 Schrodinger Suite 2021-4.
 45 48  0  0  1  0            999 V2000
   33.7532   35.1493   17.5964 Cl  0  0  0  0  0  0
   35.4290   35.5492   17.5104 C   0  0  0  0  0  0
   36.1102   35.3387   16.2932 C   0  0  0  0  0  0
   37.5000   35.5508   16.2151 C   0  0  0  0  0  0
   38.2108   35.9729   17.3530 C   0  0  0  0  0  0
   37.5258   36.2483   18.5550 C   0  0  0  0  0  0
   36.1300   36.0463   18.6351 C   0  0  0  0  0  0
   35.4351   36.4113   19.8834 C   0  0  0  0  0  0
   35.3519   37.7191   20.1839 C   0  0  0  0  0  0
   34.9257   35.4004   20.8239 C   0  0  0  0  0  0
   34.9507   34.1997   20.5387 O   0  0  0  0  0  0
   34.4302   35.8512   22.0212 N   0  0  0  0  0  0
   33.9521   34.8706   23.0097 C   0  0  0  0  0  0
   34.3093   37.2435   22.3633 C   0  0  0  0  0  0
   34.7708   38.1891   21.4286 C   0  0  0  0  0  0
   33.7758   37.6770   23.5341 N   0  0  0  0  0  0
   33.7240   38.9925   23.7596 C   0  0  0  0  0  0
   34.1520   39.9493   22.9433 N   0  0  0  0  0  0
   34.6518   39.5489   21.7620 C   0  0  0  0  0  0
   33.1646   39.4576   24.9313 N   0  0  0  0  0  0
   32.6166   38.6375   26.0062 C   0  0  0  0  0  0
   32.4223   39.4826   27.2747 C   0  0  0  0  0  0
   31.7888   38.6414   28.3948 C   0  0  0  0  0  0
   30.5558   38.0840   27.9513 O   0  0  0  0  0  0
   30.7144   37.2059   26.8425 C   0  0  0  0  0  0
   31.2665   37.9907   25.6388 C   0  0  0  0  0  0
   35.5690   34.9838   15.4268 H   0  0  0  0  0  0
   38.0235   35.3701   15.2880 H   0  0  0  0  0  0
   39.2800   36.1296   17.2968 H   0  0  0  0  0  0
   38.0764   36.6188   19.4085 H   0  0  0  0  0  0
   35.7387   38.4526   19.4902 H   0  0  0  0  0  0
   34.1960   35.1794   24.0272 H   0  0  0  0  0  0
   32.8674   34.7755   22.9456 H   0  0  0  0  0  0
   34.3828   33.8745   22.8933 H   0  0  0  0  0  0
   34.9547   40.3301   21.0884 H   0  0  0  0  0  0
   33.2418   40.4543   25.0972 H   0  0  0  0  0  0
   33.3367   37.8460   26.2239 H   0  0  0  0  0  0
   33.3754   39.8910   27.6104 H   0  0  0  0  0  0
   31.7808   40.3379   27.0600 H   0  0  0  0  0  0
   32.4658   37.8473   28.7141 H   0  0  0  0  0  0
   31.5970   39.2613   29.2699 H   0  0  0  0  0  0
   31.3845   36.3863   27.1065 H   0  0  0  0  0  0
   29.7525   36.7493   26.6083 H   0  0  0  0  0  0
   30.5485   38.7565   25.3415 H   0  0  0  0  0  0
   31.3793   37.3215   24.7857 H   0  0  0  0  0  0
  1  2  1  0  0  0
  2  7  1  0  0  0
  2  3  2  0  0  0
  3  4  1  0  0  0
  3 27  1  0  0  0
  4  5  2  0  0  0
  4 28  1  0  0  0
  5  6  1  0  0  0
  5 29  1  0  0  0
  6  7  2  0  0  0
  6 30  1  0  0  0
  7  8  1  0  0  0
  8  9  2  0  0  0
  8 10  1  0  0  0
  9 15  1  0  0  0
  9 31  1  0  0  0
 10 11  2  0  0  0
 10 12  1  0  0  0
 12 13  1  0  0  0
 12 14  1  0  0  0
 13 32  1  0  0  0
 13 33  1  0  0  0
 13 34  1  0  0  0
 14 15  1  0  0  0
 14 16  2  0  0  0
 15 19  2  0  0  0
 16 17  1  0  0  0
 17 18  2  0  0  0
 17 20  1  0  0  0
 18 19  1  0  0  0
 19 35  1  0  0  0
 20 21  1  0  0  0
 20 36  1  0  0  0
 21 26  1  0  0  0
 21 22  1  0  0  0
 21 37  1  0  0  0
 22 23  1  0  0  0
 22 38  1  0  0  0
 22 39  1  0  0  0
 23 24  1  0  0  0
 23 40  1  0  0  0
 23 41  1  0  0  0
 24 25  1  0  0  0
 25 26  1  0  0  0
 25 42  1  0  0  0
 25 43  1  0  0  0
 26 44  1  0  0  0
 26 45  1  0  0  0
M  END
> <s_m_entry_id>
746

> <i_f3d_flags>
0

> <r_lp_tautomer_probability>
1

> <r_epik_Ionization_Penalty>
  0.0000

> <r_epik_State_Penalty>
  0.0000

> <i_epik_Tot_Q>
0

> <s_m_job_name>
glide-dock_SP_p38_all_ligs_no_cons_10_poses

> <r_i_docking_score>
-7.79511626972204

> <r_i_glide_gscore>
-7.79511626972204

> <r_i_glide_emodel>
-65.3199964443637

$$$$
lig_p38a_2m
                    3D
 Schrodinger Suite 2021-4.
 50 54  0  0  1  0            999 V2000
   38.9521   35.9804   16.2886 F   0  0  0  0  0  0
   37.8081   35.9495   16.9924 C   0  0  0  0  0  0
   36.6100   35.5823   16.3586 C   0  0  0  0  0  0
   35.4164   35.5492   17.0978 C   0  0  0  0  0  0
   34.2744   35.1492   16.4909 F   0  0  0  0  0  0
   35.4074   35.8813   18.4683 C   0  0  0  0  0  0
   36.6253   36.2602   19.0909 C   0  0  0  0  0  0
   37.8192   36.2999   18.3538 C   0  0  0  0  0  0
   34.2070   35.7897   19.1391 O   0  0  0  0  0  0
   34.1457   36.2487   20.4245 C   0  0  0  0  0  0
   34.1146   37.5689   20.6461 C   0  0  0  0  0  0
   34.2024   35.2717   21.5154 C   0  0  0  0  0  0
   34.2294   34.0666   21.2532 O   0  0  0  0  0  0
   34.2667   35.7530   22.8025 N   0  0  0  0  0  0
   34.4481   34.7516   23.8662 C   0  0  0  0  0  0
   35.3105   35.0116   25.0886 C   0  0  0  0  0  0
   33.8140   34.8652   25.2406 C   0  0  0  0  0  0
   34.2002   37.1854   23.0805 C   0  0  0  0  0  0
   34.1497   38.0877   21.9905 C   0  0  0  0  0  0
   34.1817   37.7202   24.3236 N   0  0  0  0  0  0
   34.1371   39.0430   24.4781 C   0  0  0  0  0  0
   34.1520   39.9492   23.5054 N   0  0  0  0  0  0
   34.1453   39.4701   22.2505 C   0  0  0  0  0  0
   34.0294   39.5472   25.7571 N   0  0  0  0  0  0
   33.9283   38.7479   26.9725 C   0  0  0  0  0  0
   35.3144   38.3604   27.5127 C   0  0  0  0  0  0
   36.0092   39.5486   28.2039 C   0  0  0  0  0  0
   35.1776   40.0665   29.2333 O   0  0  0  0  0  0
   33.9559   40.5949   28.7311 C   0  0  0  0  0  0
   33.1313   39.4796   28.0653 C   0  0  0  0  0  0
   36.6091   35.3204   15.3117 H   0  0  0  0  0  0
   36.6720   36.5158   20.1383 H   0  0  0  0  0  0
   38.7456   36.5837   18.8312 H   0  0  0  0  0  0
   34.0990   38.2715   19.8261 H   0  0  0  0  0  0
   34.5140   33.7136   23.5451 H   0  0  0  0  0  0
   35.9245   34.1865   25.4435 H   0  0  0  0  0  0
   35.7530   35.9913   25.2396 H   0  0  0  0  0  0
   33.2204   35.7404   25.4896 H   0  0  0  0  0  0
   33.4558   33.9425   25.6919 H   0  0  0  0  0  0
   34.1284   40.1967   21.4509 H   0  0  0  0  0  0
   33.9566   40.5586   25.8405 H   0  0  0  0  0  0
   33.3815   37.8373   26.7266 H   0  0  0  0  0  0
   35.2009   37.5530   28.2369 H   0  0  0  0  0  0
   35.9426   37.9654   26.7139 H   0  0  0  0  0  0
   36.9517   39.2257   28.6463 H   0  0  0  0  0  0
   36.2498   40.3363   27.4891 H   0  0  0  0  0  0
   33.3949   41.0273   29.5598 H   0  0  0  0  0  0
   34.1579   41.4072   28.0320 H   0  0  0  0  0  0
   32.2021   39.8828   27.6609 H   0  0  0  0  0  0
   32.8429   38.7605   28.8323 H   0  0  0  0  0  0
  1  2  1  0  0  0
  2  8  1  0  0  0
  2  3  2  0  0  0
  3  4  1  0  0  0
  3 31  1  0  0  0
  4  5  1  0  0  0
  4  6  2  0  0  0
  6  7  1  0  0  0
  6  9  1  0  0  0
  7  8  2  0  0  0
  7 32  1  0  0  0
  8 33  1  0  0  0
  9 10  1  0  0  0
 10 11  2  0  0  0
 10 12  1  0  0  0
 11 19  1  0  0  0
 11 34  1  0  0  0
 12 13  2  0  0  0
 12 14  1  0  0  0
 14 15  1  0  0  0
 14 18  1  0  0  0
 15 17  1  0  0  0
 15 16  1  0  0  0
 15 35  1  0  0  0
 16 17  1  0  0  0
 16 36  1  0  0  0
 16 37  1  0  0  0
 17 38  1  0  0  0
 17 39  1  0  0  0
 18 19  1  0  0  0
 18 20  2  0  0  0
 19 23  2  0  0  0
 20 21  1  0  0  0
 21 22  2  0  0  0
 21 24  1  0  0  0
 22 23  1  0  0  0
 23 40  1  0  0  0
 24 25  1  0  0  0
 24 41  1  0  0  0
 25 30  1  0  0  0
 25 26  1  0  0  0
 25 42  1  0  0  0
 26 27  1  0  0  0
 26 43  1  0  0  0
 26 44  1  0  0  0
 27 28  1  0  0  0
 27 45  1  0  0  0
 27 46  1  0  0  0
 28 29  1  0  0  0
 29 30  1  0  0  0
 29 47  1  0  0  0
 29 48  1  0  0  0
 30 49  1  0  0  0
 30 50  1  0  0  0
M  END
> <s_m_entry_id>
747

> <i_f3d_flags>
0

> <r_lp_tautomer_probability>
1

> <r_epik_Ionization_Penalty>
  0.0000

> <r_epik_State_Penalty>
  0.0000

> <i_epik_Tot_Q>
0

> <s_m_job_name>
glide-dock_SP_p38_all_ligs_no_cons_10_poses

> <r_i_docking_score>
-7.63391388570717

> <r_i_glide_gscore>
-7.63391388570717

> <r_i_glide_emodel>
-59.7863634142566

$$$$
lig_p38a_2ee
                    3D
 Schrodinger Suite 2021-4.
 52 55  0  0  1  0            999 V2000
   38.9521   36.0048   16.2894 F   0  0  0  0  0  0
   37.8183   35.9533   17.0109 C   0  0  0  0  0  0
   36.6136   35.5894   16.3891 C   0  0  0  0  0  0
   35.4307   35.5429   17.1458 C   0  0  0  0  0  0
   34.2823   35.1492   16.5493 F   0  0  0  0  0  0
   35.4406   35.8481   18.5221 C   0  0  0  0  0  0
   36.6643   36.2327   19.1322 C   0  0  0  0  0  0
   37.8442   36.3007   18.3745 C   0  0  0  0  0  0
   34.2573   35.7194   19.2126 O   0  0  0  0  0  0
   34.1914   36.2131   20.4842 C   0  0  0  0  0  0
   34.1666   37.5450   20.6744 C   0  0  0  0  0  0
   34.2102   35.2619   21.5996 C   0  0  0  0  0  0
   34.2223   34.0447   21.4010 O   0  0  0  0  0  0
   34.2451   35.8009   22.8559 N   0  0  0  0  0  0
   34.3237   34.9125   24.0272 C   0  0  0  0  0  0
   34.2087   37.2151   23.1096 C   0  0  0  0  0  0
   34.1784   38.0981   22.0125 C   0  0  0  0  0  0
   34.1953   37.7203   24.3614 N   0  0  0  0  0  0
   34.1420   39.0459   24.5106 C   0  0  0  0  0  0
   34.1513   39.9493   23.5347 N   0  0  0  0  0  0
   34.1652   39.4773   22.2746 C   0  0  0  0  0  0
   34.0190   39.5490   25.7886 N   0  0  0  0  0  0
   34.1882   38.7658   27.0085 C   0  0  0  0  0  0
   35.6150   38.9155   27.5627 C   0  0  0  0  0  0
   35.8442   40.3202   28.1499 C   0  0  0  0  0  0
   34.8434   40.5890   29.1907 N   0  0  0  0  0  0
   33.4646   40.5506   28.6798 C   0  0  0  0  0  0
   33.1566   39.1725   28.0725 C   0  0  0  0  0  0
   35.1875   40.8558   30.4754 C   0  0  0  0  0  0
   36.3579   40.8819   30.8581 O   0  0  0  0  0  0
   34.0914   41.1372   31.5040 C   0  0  0  0  0  0
   36.6000   35.3399   15.3391 H   0  0  0  0  0  0
   36.7202   36.4724   20.1839 H   0  0  0  0  0  0
   38.7723   36.5917   18.8409 H   0  0  0  0  0  0
   34.1712   38.2288   19.8389 H   0  0  0  0  0  0
   34.4944   33.8589   23.7959 H   0  0  0  0  0  0
   35.1372   35.2212   24.6850 H   0  0  0  0  0  0
   33.3952   34.9731   24.5973 H   0  0  0  0  0  0
   34.1578   40.2062   21.4787 H   0  0  0  0  0  0
   33.9480   40.5593   25.8774 H   0  0  0  0  0  0
   34.0161   37.7110   26.7900 H   0  0  0  0  0  0
   36.3532   38.6986   26.7892 H   0  0  0  0  0  0
   35.7586   38.1735   28.3485 H   0  0  0  0  0  0
   35.7549   41.0782   27.3720 H   0  0  0  0  0  0
   36.8687   40.3906   28.5176 H   0  0  0  0  0  0
   32.7104   40.7491   29.4356 H   0  0  0  0  0  0
   33.3522   41.3280   27.9242 H   0  0  0  0  0  0
   33.1554   38.4288   28.8695 H   0  0  0  0  0  0
   32.1535   39.1644   27.6458 H   0  0  0  0  0  0
   33.4945   42.0027   31.2092 H   0  0  0  0  0  0
   34.5296   41.3537   32.4798 H   0  0  0  0  0  0
   33.4344   40.2736   31.6148 H   0  0  0  0  0  0
  1  2  1  0  0  0
  2  8  1  0  0  0
  2  3  2  0  0  0
  3  4  1  0  0  0
  3 32  1  0  0  0
  4  5  1  0  0  0
  4  6  2  0  0  0
  6  7  1  0  0  0
  6  9  1  0  0  0
  7  8  2  0  0  0
  7 33  1  0  0  0
  8 34  1  0  0  0
  9 10  1  0  0  0
 10 11  2  0  0  0
 10 12  1  0  0  0
 11 17  1  0  0  0
 11 35  1  0  0  0
 12 13  2  0  0  0
 12 14  1  0  0  0
 14 15  1  0  0  0
 14 16  1  0  0  0
 15 36  1  0  0  0
 15 37  1  0  0  0
 15 38  1  0  0  0
 16 17  1  0  0  0
 16 18  2  0  0  0
 17 21  2  0  0  0
 18 19  1  0  0  0
 19 20  2  0  0  0
 19 22  1  0  0  0
 20 21  1  0  0  0
 21 39  1  0  0  0
 22 23  1  0  0  0
 22 40  1  0  0  0
 23 28  1  0  0  0
 23 24  1  0  0  0
 23 41  1  0  0  0
 24 25  1  0  0  0
 24 42  1  0  0  0
 24 43  1  0  0  0
 25 26  1  0  0  0
 25 44  1  0  0  0
 25 45  1  0  0  0
 26 27  1  0  0  0
 26 29  1  0  0  0
 27 28  1  0  0  0
 27 46  1  0  0  0
 27 47  1  0  0  0
 28 48  1  0  0  0
 28 49  1  0  0  0
 29 30  2  0  0  0
 29 31  1  0  0  0
 31 50  1  0  0  0
 31 51  1  0  0  0
 31 52  1  0  0  0
M  END
> <s_m_entry_id>
748

> <i_f3d_flags>
0

> <r_lp_tautomer_probability>
1

> <r_epik_Ionization_Penalty>
  0.0000

> <r_epik_State_Penalty>
  0.0000

> <i_epik_Tot_Q>
0

> <s_m_job_name>
glide-dock_SP_p38_all_ligs_no_cons_10_poses

> <r_i_docking_score>
-7.38543266333266

> <r_i_glide_gscore>
-7.38543266333266

> <r_i_glide_emodel>
-62.6541525953837

$$$$
