lig_p38a_2l
     RDKit          3D

 49 52  0  0  1  0  0  0  0  0999 V2000
   34.3480   36.0280   20.3370 C   0  0  0  0  0  0  0  0  0  0  0  0
   34.3390   37.4150   20.4710 C   0  0  0  0  0  0  0  0  0  0  0  0
   34.2730   37.9890   21.7340 C   0  0  0  0  0  0  0  0  0  0  0  0
   34.2480   39.3720   21.8980 C   0  0  0  0  0  0  0  0  0  0  0  0
   34.1750   39.9020   23.1470 N   0  0  0  0  0  0  0  0  0  0  0  0
   34.1240   39.1030   24.2470 C   0  0  0  0  0  0  0  0  0  0  0  0
   34.0430   39.6970   25.5470 N   0  0  0  0  0  0  0  0  0  0  0  0
   34.1500   37.7490   24.1030 N   0  0  0  0  0  0  0  0  0  0  0  0
   34.2220   37.1690   22.8740 C   0  0  0  0  0  0  0  0  0  0  0  0
   34.2560   35.8060   22.7400 N   0  0  0  0  0  0  0  0  0  0  0  0
   34.3300   35.2260   21.4990 C   0  0  0  0  0  0  0  0  0  0  0  0
   34.4050   33.9700   21.3940 O   0  0  0  0  0  0  0  0  0  0  0  0
   33.9730   38.9370   26.7920 C   0  0  0  0  0  0  0  0  0  0  0  0
   33.0620   39.6320   27.8130 C   0  0  0  0  0  0  0  0  0  0  0  0
   33.3250   39.1380   29.2430 C   0  0  0  0  0  0  0  0  0  0  0  0
   34.0480   37.9320   29.2410 O   0  0  0  0  0  0  0  0  0  0  0  0
   35.3470   38.2680   28.8240 C   0  0  0  0  0  0  0  0  0  0  0  0
   35.3770   38.6320   27.3330 C   0  0  0  0  0  0  0  0  0  0  0  0
   34.2100   34.9590   23.9320 C   0  0  0  0  0  0  0  0  0  0  0  0
   35.6040   34.7890   24.5080 C   0  0  0  0  0  0  0  0  0  0  0  0
   34.4190   35.4840   19.0460 O   0  0  0  0  0  0  0  0  0  0  0  0
   36.1980   35.8770   15.8330 C   0  0  0  0  0  0  0  0  0  0  0  0
   35.1810   35.6970   16.7740 C   0  0  0  0  0  0  0  0  0  0  0  0
   35.4740   35.6780   18.1430 C   0  0  0  0  0  0  0  0  0  0  0  0
   36.8140   35.8120   18.5630 C   0  0  0  0  0  0  0  0  0  0  0  0
   37.1500   35.7290   19.8740 F   0  0  0  0  0  0  0  0  0  0  0  0
   37.8280   35.9910   17.6170 C   0  0  0  0  0  0  0  0  0  0  0  0
   37.5200   36.0310   16.2550 C   0  0  0  0  0  0  0  0  0  0  0  0
   38.5060   36.2060   15.3430 F   0  0  0  0  0  0  0  0  0  0  0  0
   34.3841   38.0547   19.5773 H   0  0  0  0  0  0  0  0  0  0  0  0
   34.2872   40.0328   21.0195 H   0  0  0  0  0  0  0  0  0  0  0  0
   34.0335   40.7251   25.6080 H   0  0  0  0  0  0  0  0  0  0  0  0
   33.5086   37.9617   26.5841 H   0  0  0  0  0  0  0  0  0  0  0  0
   33.2437   40.7161   27.7720 H   0  0  0  0  0  0  0  0  0  0  0  0
   32.0188   39.3953   27.5565 H   0  0  0  0  0  0  0  0  0  0  0  0
   33.9023   39.9012   29.7855 H   0  0  0  0  0  0  0  0  0  0  0  0
   32.3564   38.9618   29.7336 H   0  0  0  0  0  0  0  0  0  0  0  0
   35.7002   39.1291   29.4103 H   0  0  0  0  0  0  0  0  0  0  0  0
   35.9990   37.3962   28.9820 H   0  0  0  0  0  0  0  0  0  0  0  0
   35.8003   37.7878   26.7689 H   0  0  0  0  0  0  0  0  0  0  0  0
   35.9929   39.5356   27.2141 H   0  0  0  0  0  0  0  0  0  0  0  0
   33.5600   35.4274   24.6857 H   0  0  0  0  0  0  0  0  0  0  0  0
   33.8129   33.9712   23.6554 H   0  0  0  0  0  0  0  0  0  0  0  0
   35.5501   34.7956   25.6067 H   0  0  0  0  0  0  0  0  0  0  0  0
   36.0274   33.8326   24.1674 H   0  0  0  0  0  0  0  0  0  0  0  0
   36.2448   35.6157   24.1674 H   0  0  0  0  0  0  0  0  0  0  0  0
   35.9572   35.8974   14.7599 H   0  0  0  0  0  0  0  0  0  0  0  0
   34.1419   35.5692   16.4366 H   0  0  0  0  0  0  0  0  0  0  0  0
   38.8718   36.1007   17.9464 H   0  0  0  0  0  0  0  0  0  0  0  0
  1  2  2  0
  1 11  1  0
  1 21  1  0
  2  3  1  0
  3  4  2  0
  3  9  1  0
  4  5  1  0
  5  6  2  0
  6  7  1  0
  6  8  1  0
  7 13  1  0
  8  9  2  0
  9 10  1  0
 10 19  1  0
 10 11  1  0
 11 12  2  0
 13 18  1  0
 13 14  1  0
 14 15  1  0
 15 16  1  0
 16 17  1  0
 17 18  1  0
 19 20  1  0
 21 24  1  0
 22 28  2  0
 22 23  1  0
 23 24  2  0
 24 25  1  0
 25 26  1  0
 25 27  2  0
 27 28  1  0
 28 29  1  0
  2 30  1  0
  4 31  1  0
  7 32  1  0
 13 33  1  0
 14 34  1  0
 14 35  1  0
 15 36  1  0
 15 37  1  0
 17 38  1  0
 17 39  1  0
 18 40  1  0
 18 41  1  0
 19 42  1  0
 19 43  1  0
 20 44  1  0
 20 45  1  0
 20 46  1  0
 22 47  1  0
 23 48  1  0
 27 49  1  0
M  END
>  <s_m_entry_id>  (1) 
49

>  <MODEL>  (1) 
2

>  <REMARK>  (1) 
 VINA RESULT:   -11.915      1.607      2.113
 INTER + INTRA:         -11.188
 INTER:                 -10.636
 INTRA:                  -0.552
 UNBOUND:                 3.514
  Name = /scratch/kmzp800/tmpiyqa8pzq/tmp4zif2org.pdb
  5 active torsions:
  status: ('A' for Active; 'I' for Inactive)
    1  A    between atoms: C3_3  and  O1_4
    2  A    between atoms: O1_4  and  C4_5
    3  A    between atoms: N2_11  and  C9_12
    4  A    between atoms: N4_20  and  C15_21
    5  A    between atoms: C15_21  and  C16_22
                            x       y       z     vdW  Elec       q    Type
                         _______ _______ _______ _____ _____    ______ ____

>  <TORSDO>  (1) 
F 4

>  <grid_id>  (1) 
p38-prepared

>  <grid_path>  (1) 
/projects/mai/users/kmzp800_harry/pmx_colab/docking_jobs/p38/vina_docking/input_files/p38_vina.pdbqt

>  <grid_filename>  (1) 
p38_vina.pdbqt

>  <docking_score>  (1) 
-11.915

>  <compound_name>  (1) 
lig_p38a_2l

>  <index_string>  (1) 
0:0:1

$$$$
lig_p38a_3fmh
     RDKit          3D

 46 49  0  0  1  0  0  0  0  0999 V2000
   34.1350   39.6510   25.7600 N   0  0  0  0  0  0  0  0  0  0  0  0
   34.1420   39.0950   24.4440 C   0  0  0  0  0  0  0  0  0  0  0  0
   33.9520   39.9080   23.3720 N   0  0  0  0  0  0  0  0  0  0  0  0
   33.9500   39.4120   22.1080 C   0  0  0  0  0  0  0  0  0  0  0  0
   34.1440   38.0500   21.8990 C   0  0  0  0  0  0  0  0  0  0  0  0
   34.1530   37.5120   20.6180 C   0  0  0  0  0  0  0  0  0  0  0  0
   34.3600   36.1450   20.4390 C   0  0  0  0  0  0  0  0  0  0  0  0
   34.5220   35.3210   21.5750 C   0  0  0  0  0  0  0  0  0  0  0  0
   34.6450   34.0730   21.4290 O   0  0  0  0  0  0  0  0  0  0  0  0
   34.5200   35.8680   22.8320 N   0  0  0  0  0  0  0  0  0  0  0  0
   34.7040   35.0030   23.9930 C   0  0  0  0  0  0  0  0  0  0  0  0
   34.3370   37.2130   23.0120 C   0  0  0  0  0  0  0  0  0  0  0  0
   34.3300   37.7590   24.2590 N   0  0  0  0  0  0  0  0  0  0  0  0
   34.3570   38.8520   26.9550 C   0  0  0  0  0  0  0  0  0  0  0  0
   35.8330   38.8720   27.3210 C   0  0  0  0  0  0  0  0  0  0  0  0
   33.5330   39.4210   28.0990 C   0  0  0  0  0  0  0  0  0  0  0  0
   30.7040   37.5080   28.9690 C   0  0  0  0  0  0  0  0  0  0  0  0
   30.3810   37.8480   27.7010 N   0  0  0  0  0  0  0  0  0  0  0  0
   31.3820   38.5900   27.2590 N   0  0  0  0  0  0  0  0  0  0  0  0
   32.2750   38.7030   28.2240 N   0  0  0  0  0  0  0  0  0  0  0  0
   31.8970   38.0420   29.3010 N   0  0  0  0  0  0  0  0  0  0  0  0
   34.3570   35.6370   19.1320 O   0  0  0  0  0  0  0  0  0  0  0  0
   35.4210   35.7280   18.2250 C   0  0  0  0  0  0  0  0  0  0  0  0
   35.1340   35.6580   16.8560 C   0  0  0  0  0  0  0  0  0  0  0  0
   36.1580   35.7540   15.9120 C   0  0  0  0  0  0  0  0  0  0  0  0
   37.4800   35.9290   16.3280 C   0  0  0  0  0  0  0  0  0  0  0  0
   38.4730   36.0210   15.4120 F   0  0  0  0  0  0  0  0  0  0  0  0
   37.7750   36.0220   17.6900 C   0  0  0  0  0  0  0  0  0  0  0  0
   36.7540   35.9270   18.6410 C   0  0  0  0  0  0  0  0  0  0  0  0
   37.0650   36.0700   19.9530 F   0  0  0  0  0  0  0  0  0  0  0  0
   33.9654   40.6613   25.8672 H   0  0  0  0  0  0  0  0  0  0  0  0
   33.7955   40.0849   21.2517 H   0  0  0  0  0  0  0  0  0  0  0  0
   33.9970   38.1640   19.7459 H   0  0  0  0  0  0  0  0  0  0  0  0
   34.5786   35.5926   24.9131 H   0  0  0  0  0  0  0  0  0  0  0  0
   33.9576   34.1953   23.9705 H   0  0  0  0  0  0  0  0  0  0  0  0
   35.7145   34.5691   23.9705 H   0  0  0  0  0  0  0  0  0  0  0  0
   34.0509   37.8127   26.7647 H   0  0  0  0  0  0  0  0  0  0  0  0
   35.9393   38.8734   28.4159 H   0  0  0  0  0  0  0  0  0  0  0  0
   36.3258   37.9805   26.9059 H   0  0  0  0  0  0  0  0  0  0  0  0
   36.3015   39.7766   26.9059 H   0  0  0  0  0  0  0  0  0  0  0  0
   34.0999   39.3248   29.0368 H   0  0  0  0  0  0  0  0  0  0  0  0
   33.3201   40.4803   27.8928 H   0  0  0  0  0  0  0  0  0  0  0  0
   30.0845   36.8868   29.6326 H   0  0  0  0  0  0  0  0  0  0  0  0
   34.0942   35.5264   16.5221 H   0  0  0  0  0  0  0  0  0  0  0  0
   35.9235   35.6918   14.8391 H   0  0  0  0  0  0  0  0  0  0  0  0
   38.8150   36.1706   18.0161 H   0  0  0  0  0  0  0  0  0  0  0  0
  1 14  1  0
  1  2  1  0
  2  3  2  0
  2 13  1  0
  3  4  1  0
  4  5  2  0
  5 12  1  0
  5  6  1  0
  6  7  2  0
  7  8  1  0
  7 22  1  0
  8 10  1  0
  8  9  2  0
 10 12  1  0
 10 11  1  0
 12 13  2  0
 14 15  1  0
 14 16  1  0
 16 20  1  0
 17 21  2  0
 17 18  1  0
 18 19  2  0
 19 20  1  0
 20 21  1  0
 22 23  1  0
 23 29  1  0
 23 24  2  0
 24 25  1  0
 25 26  2  0
 26 28  1  0
 26 27  1  0
 28 29  2  0
 29 30  1  0
  1 31  1  0
  4 32  1  0
  6 33  1  0
 11 34  1  0
 11 35  1  0
 11 36  1  0
 14 37  1  0
 15 38  1  0
 15 39  1  0
 15 40  1  0
 16 41  1  0
 16 42  1  0
 17 43  1  0
 24 44  1  0
 25 45  1  0
 28 46  1  0
M  END
>  <s_m_entry_id>  (2) 
50

>  <MODEL>  (2) 
3

>  <REMARK>  (2) 
 VINA RESULT:    -8.543      1.189      1.540
 INTER + INTRA:         -11.682
 INTER:                 -10.915
 INTRA:                  -0.766
 UNBOUND:                -0.641
  Name = /scratch/kmzp800/tmp8on4avld/tmp_r1zng34.pdb
  7 active torsions:
  status: ('A' for Active; 'I' for Inactive)
    1  A    between atoms: N3_4  and  C2_5
    2  A    between atoms: C2_5  and  C3_6
    3  A    between atoms: C3_6  and  N4_7
    4  A    between atoms: C3_6  and  C18_29
    5  A    between atoms: C8_13  and  O1_14
    6  A    between atoms: O1_14  and  C9_15
    7  A    between atoms: N6_25  and  C16_26
                            x       y       z     vdW  Elec       q    Type
                         _______ _______ _______ _____ _____    ______ ____

>  <TORSDO>  (2) 
F 5

>  <grid_id>  (2) 
p38-prepared

>  <grid_path>  (2) 
/projects/mai/users/kmzp800_harry/pmx_colab/docking_jobs/p38/vina_docking/input_files/p38_vina.pdbqt

>  <grid_filename>  (2) 
p38_vina.pdbqt

>  <docking_score>  (2) 
-8.543

>  <compound_name>  (2) 
lig_p38a_3fmh

>  <index_string>  (2) 
1:0:2

$$$$
lig_p38a_3fln
     RDKit          3D

 46 49  0  0  1  0  0  0  0  0999 V2000
   33.9560   35.9880   20.3230 C   0  0  0  0  0  0  0  0  0  0  0  0
   33.8960   37.3720   20.4750 C   0  0  0  0  0  0  0  0  0  0  0  0
   33.8530   37.9290   21.7470 C   0  0  0  0  0  0  0  0  0  0  0  0
   33.7820   39.3070   21.9300 C   0  0  0  0  0  0  0  0  0  0  0  0
   33.7360   39.8190   23.1870 N   0  0  0  0  0  0  0  0  0  0  0  0
   33.7580   39.0070   24.2780 C   0  0  0  0  0  0  0  0  0  0  0  0
   33.7090   39.5840   25.5870 N   0  0  0  0  0  0  0  0  0  0  0  0
   33.8290   37.6570   24.1160 N   0  0  0  0  0  0  0  0  0  0  0  0
   33.8760   37.0940   22.8770 C   0  0  0  0  0  0  0  0  0  0  0  0
   33.9560   35.7360   22.7230 N   0  0  0  0  0  0  0  0  0  0  0  0
   33.9980   34.8780   23.9040 C   0  0  0  0  0  0  0  0  0  0  0  0
   34.0100   35.1730   21.4750 C   0  0  0  0  0  0  0  0  0  0  0  0
   34.1290   33.9220   21.3510 O   0  0  0  0  0  0  0  0  0  0  0  0
   33.7270   38.8140   26.8260 C   0  0  0  0  0  0  0  0  0  0  0  0
   32.9000   39.5040   27.9200 C   0  0  0  0  0  0  0  0  0  0  0  0
   33.2610   38.9880   29.3200 C   0  0  0  0  0  0  0  0  0  0  0  0
   33.9690   37.7760   29.2490 O   0  0  0  0  0  0  0  0  0  0  0  0
   35.2390   38.1040   28.7430 C   0  0  0  0  0  0  0  0  0  0  0  0
   35.1630   38.4930   27.2600 C   0  0  0  0  0  0  0  0  0  0  0  0
   34.0030   35.4630   19.0240 O   0  0  0  0  0  0  0  0  0  0  0  0
   35.8680   35.5900   15.8380 C   0  0  0  0  0  0  0  0  0  0  0  0
   34.8270   35.4780   16.7640 C   0  0  0  0  0  0  0  0  0  0  0  0
   35.0800   35.5930   18.1350 C   0  0  0  0  0  0  0  0  0  0  0  0
   36.4040   35.7940   18.5770 C   0  0  0  0  0  0  0  0  0  0  0  0
   36.7030   35.8420   19.8990 F   0  0  0  0  0  0  0  0  0  0  0  0
   37.4420   35.9050   17.6470 C   0  0  0  0  0  0  0  0  0  0  0  0
   37.1740   35.8120   16.2790 C   0  0  0  0  0  0  0  0  0  0  0  0
   38.1820   35.9210   15.3820 F   0  0  0  0  0  0  0  0  0  0  0  0
   33.8827   38.0230   19.5884 H   0  0  0  0  0  0  0  0  0  0  0  0
   33.7632   39.9791   21.0594 H   0  0  0  0  0  0  0  0  0  0  0  0
   33.6577   40.6102   25.6589 H   0  0  0  0  0  0  0  0  0  0  0  0
   33.9675   35.5003   24.8106 H   0  0  0  0  0  0  0  0  0  0  0  0
   33.1320   34.1998   23.8955 H   0  0  0  0  0  0  0  0  0  0  0  0
   34.9261   34.2876   23.8955 H   0  0  0  0  0  0  0  0  0  0  0  0
   33.2410   37.8446   26.6414 H   0  0  0  0  0  0  0  0  0  0  0  0
   33.0898   40.5868   27.8799 H   0  0  0  0  0  0  0  0  0  0  0  0
   31.8384   39.2811   27.7372 H   0  0  0  0  0  0  0  0  0  0  0  0
   33.8842   39.7381   29.8290 H   0  0  0  0  0  0  0  0  0  0  0  0
   32.3290   38.8143   29.8778 H   0  0  0  0  0  0  0  0  0  0  0  0
   35.6455   38.9508   29.3155 H   0  0  0  0  0  0  0  0  0  0  0  0
   35.8900   37.2225   28.8386 H   0  0  0  0  0  0  0  0  0  0  0  0
   35.5394   37.6563   26.6531 H   0  0  0  0  0  0  0  0  0  0  0  0
   35.7738   39.3959   27.1125 H   0  0  0  0  0  0  0  0  0  0  0  0
   35.6583   35.5032   14.7617 H   0  0  0  0  0  0  0  0  0  0  0  0
   33.8006   35.2980   16.4118 H   0  0  0  0  0  0  0  0  0  0  0  0
   38.4734   36.0661   17.9936 H   0  0  0  0  0  0  0  0  0  0  0  0
  1  2  2  0
  1 12  1  0
  1 20  1  0
  2  3  1  0
  3  4  2  0
  3  9  1  0
  4  5  1  0
  5  6  2  0
  6  7  1  0
  6  8  1  0
  7 14  1  0
  8  9  2  0
  9 10  1  0
 10 11  1  0
 10 12  1  0
 12 13  2  0
 14 19  1  0
 14 15  1  0
 15 16  1  0
 16 17  1  0
 17 18  1  0
 18 19  1  0
 20 23  1  0
 21 27  2  0
 21 22  1  0
 22 23  2  0
 23 24  1  0
 24 25  1  0
 24 26  2  0
 26 27  1  0
 27 28  1  0
  2 29  1  0
  4 30  1  0
  7 31  1  0
 11 32  1  0
 11 33  1  0
 11 34  1  0
 14 35  1  0
 15 36  1  0
 15 37  1  0
 16 38  1  0
 16 39  1  0
 18 40  1  0
 18 41  1  0
 19 42  1  0
 19 43  1  0
 21 44  1  0
 22 45  1  0
 26 46  1  0
M  END
>  <s_m_entry_id>  (3) 
51

>  <MODEL>  (3) 
2

>  <REMARK>  (3) 
 VINA RESULT:    -8.929      1.408      1.903
 INTER + INTRA:         -10.297
 INTER:                  -9.915
 INTRA:                  -0.382
 UNBOUND:                 0.198
  Name = /scratch/kmzp800/tmpsgjhmms0/tmpaf4j2cok.pdb
  4 active torsions:
  status: ('A' for Active; 'I' for Inactive)
    1  A    between atoms: C3_3  and  O1_4
    2  A    between atoms: O1_4  and  C4_5
    3  A    between atoms: N2_11  and  C9_12
    4  A    between atoms: N4_20  and  C15_21
                            x       y       z     vdW  Elec       q    Type
                         _______ _______ _______ _____ _____    ______ ____

>  <TORSDO>  (3) 
F 3

>  <grid_id>  (3) 
p38-prepared

>  <grid_path>  (3) 
/projects/mai/users/kmzp800_harry/pmx_colab/docking_jobs/p38/vina_docking/input_files/p38_vina.pdbqt

>  <grid_filename>  (3) 
p38_vina.pdbqt

>  <docking_score>  (3) 
-8.929

>  <compound_name>  (3) 
lig_p38a_3fln

>  <index_string>  (3) 
2:0:1

$$$$
lig_p38a_2j
     RDKit          3D

 48 51  0  0  1  0  0  0  0  0999 V2000
   35.8310   36.4830   20.5950 C   0  0  0  0  0  0  0  0  0  0  0  0
   35.6860   37.8400   20.8820 C   0  0  0  0  0  0  0  0  0  0  0  0
   34.9970   38.2320   22.0230 C   0  0  0  0  0  0  0  0  0  0  0  0
   34.8340   39.5780   22.3400 C   0  0  0  0  0  0  0  0  0  0  0  0
   34.1530   39.9290   23.4610 N   0  0  0  0  0  0  0  0  0  0  0  0
   33.6240   38.9850   24.2850 C   0  0  0  0  0  0  0  0  0  0  0  0
   32.9140   39.3930   25.4570 N   0  0  0  0  0  0  0  0  0  0  0  0
   33.7740   37.6640   23.9910 N   0  0  0  0  0  0  0  0  0  0  0  0
   34.4480   37.2610   22.8780 C   0  0  0  0  0  0  0  0  0  0  0  0
   34.5930   35.9310   22.5860 N   0  0  0  0  0  0  0  0  0  0  0  0
   34.0180   34.9280   23.4780 C   0  0  0  0  0  0  0  0  0  0  0  0
   35.2710   35.5290   21.4640 C   0  0  0  0  0  0  0  0  0  0  0  0
   35.3970   34.2990   21.2060 O   0  0  0  0  0  0  0  0  0  0  0  0
   32.2920   38.4460   26.3750 C   0  0  0  0  0  0  0  0  0  0  0  0
   31.7030   39.1910   27.5840 C   0  0  0  0  0  0  0  0  0  0  0  0
   32.7390   39.4200   28.6950 C   0  0  0  0  0  0  0  0  0  0  0  0
   34.0480   39.2140   28.2260 O   0  0  0  0  0  0  0  0  0  0  0  0
   34.1590   37.8300   28.0050 C   0  0  0  0  0  0  0  0  0  0  0  0
   33.3210   37.3890   26.7930 C   0  0  0  0  0  0  0  0  0  0  0  0
   36.5550   36.0740   19.3510 C   0  0  0  0  0  0  0  0  0  0  0  0
   33.3410   35.1680   17.5600 C   0  0  0  0  0  0  0  0  0  0  0  0
   34.2610   35.4510   18.5730 C   0  0  0  0  0  0  0  0  0  0  0  0
   35.5910   35.7520   18.2550 C   0  0  0  0  0  0  0  0  0  0  0  0
   35.9960   35.7740   16.9110 C   0  0  0  0  0  0  0  0  0  0  0  0
   37.2790   36.0680   16.5800 F   0  0  0  0  0  0  0  0  0  0  0  0
   35.0740   35.4900   15.8990 C   0  0  0  0  0  0  0  0  0  0  0  0
   33.7490   35.1860   16.2220 C   0  0  0  0  0  0  0  0  0  0  0  0
   32.8580   34.9130   15.2400 F   0  0  0  0  0  0  0  0  0  0  0  0
   36.1151   38.5963   20.2083 H   0  0  0  0  0  0  0  0  0  0  0  0
   35.2555   40.3543   21.6845 H   0  0  0  0  0  0  0  0  0  0  0  0
   32.8386   40.3996   25.6618 H   0  0  0  0  0  0  0  0  0  0  0  0
   34.1887   35.2258   24.5231 H   0  0  0  0  0  0  0  0  0  0  0  0
   32.9369   34.8480   23.2914 H   0  0  0  0  0  0  0  0  0  0  0  0
   34.4953   33.9546   23.2914 H   0  0  0  0  0  0  0  0  0  0  0  0
   31.4601   37.9284   25.8750 H   0  0  0  0  0  0  0  0  0  0  0  0
   31.3253   40.1676   27.2469 H   0  0  0  0  0  0  0  0  0  0  0  0
   30.8977   38.5682   28.0008 H   0  0  0  0  0  0  0  0  0  0  0  0
   32.6485   40.4533   29.0613 H   0  0  0  0  0  0  0  0  0  0  0  0
   32.5439   38.7006   29.5039 H   0  0  0  0  0  0  0  0  0  0  0  0
   35.2143   37.5799   27.8211 H   0  0  0  0  0  0  0  0  0  0  0  0
   33.7843   37.3048   28.8960 H   0  0  0  0  0  0  0  0  0  0  0  0
   32.7891   36.4613   27.0506 H   0  0  0  0  0  0  0  0  0  0  0  0
   34.0088   37.2393   25.9477 H   0  0  0  0  0  0  0  0  0  0  0  0
   37.2074   36.8980   19.0264 H   0  0  0  0  0  0  0  0  0  0  0  0
   37.1512   35.1759   19.5702 H   0  0  0  0  0  0  0  0  0  0  0  0
   32.2973   34.9314   17.8143 H   0  0  0  0  0  0  0  0  0  0  0  0
   33.9390   35.4373   19.6247 H   0  0  0  0  0  0  0  0  0  0  0  0
   35.3924   35.5059   14.8462 H   0  0  0  0  0  0  0  0  0  0  0  0
  1  2  2  0
  1 12  1  0
  1 20  1  0
  2  3  1  0
  3  4  2  0
  3  9  1  0
  4  5  1  0
  5  6  2  0
  6  7  1  0
  6  8  1  0
  7 14  1  0
  8  9  2  0
  9 10  1  0
 10 11  1  0
 10 12  1  0
 12 13  2  0
 14 19  1  0
 14 15  1  0
 15 16  1  0
 16 17  1  0
 17 18  1  0
 18 19  1  0
 20 23  1  0
 21 22  2  0
 21 27  1  0
 22 23  1  0
 23 24  2  0
 24 25  1  0
 24 26  1  0
 26 27  2  0
 27 28  1  0
  2 29  1  0
  4 30  1  0
  7 31  1  0
 11 32  1  0
 11 33  1  0
 11 34  1  0
 14 35  1  0
 15 36  1  0
 15 37  1  0
 16 38  1  0
 16 39  1  0
 18 40  1  0
 18 41  1  0
 19 42  1  0
 19 43  1  0
 20 44  1  0
 20 45  1  0
 21 46  1  0
 22 47  1  0
 26 48  1  0
M  END
>  <s_m_entry_id>  (4) 
52

>  <MODEL>  (4) 
8

>  <REMARK>  (4) 
 VINA RESULT:    -9.984      1.280      2.210
 INTER + INTRA:          -8.761
 INTER:                  -9.219
 INTRA:                   0.458
 UNBOUND:                 2.975
  Name = /scratch/kmzp800/tmpvhn8hc5d/tmp4pxccwht.pdb
  4 active torsions:
  status: ('A' for Active; 'I' for Inactive)
    1  A    between atoms: C3_3  and  C4_4
    2  A    between atoms: C4_4  and  C5_5
    3  A    between atoms: N2_11  and  C10_12
    4  A    between atoms: N4_20  and  C16_21
                            x       y       z     vdW  Elec       q    Type
                         _______ _______ _______ _____ _____    ______ ____

>  <TORSDO>  (4) 
F 3

>  <grid_id>  (4) 
p38-prepared

>  <grid_path>  (4) 
/projects/mai/users/kmzp800_harry/pmx_colab/docking_jobs/p38/vina_docking/input_files/p38_vina.pdbqt

>  <grid_filename>  (4) 
p38_vina.pdbqt

>  <docking_score>  (4) 
-9.984

>  <compound_name>  (4) 
lig_p38a_2j

>  <index_string>  (4) 
3:0:7

$$$$
lig_p38a_2z
     RDKit          3D

 45 47  0  0  1  0  0  0  0  0999 V2000
   32.5820   36.9050   26.1340 N   0  0  0  0  0  0  0  0  0  0  0  0
   32.8040   36.8880   24.7190 C   0  0  0  0  0  0  0  0  0  0  0  0
   33.0470   38.0410   24.0370 N   0  0  0  0  0  0  0  0  0  0  0  0
   33.2580   38.0330   22.6950 C   0  0  0  0  0  0  0  0  0  0  0  0
   33.2250   36.8290   21.9990 C   0  0  0  0  0  0  0  0  0  0  0  0
   33.4360   36.7840   20.6280 C   0  0  0  0  0  0  0  0  0  0  0  0
   33.3890   35.5580   19.9540 C   0  0  0  0  0  0  0  0  0  0  0  0
   33.1470   34.3870   20.6890 C   0  0  0  0  0  0  0  0  0  0  0  0
   33.1190   33.2770   20.0880 O   0  0  0  0  0  0  0  0  0  0  0  0
   32.9400   34.4430   22.0430 N   0  0  0  0  0  0  0  0  0  0  0  0
   32.6850   33.2120   22.7850 C   0  0  0  0  0  0  0  0  0  0  0  0
   32.9740   35.6410   22.7080 C   0  0  0  0  0  0  0  0  0  0  0  0
   32.7690   35.7030   24.0520 N   0  0  0  0  0  0  0  0  0  0  0  0
   32.5910   38.0990   26.9770 C   0  0  0  0  0  0  0  0  0  0  0  0
   33.9340   38.7850   26.8150 C   0  0  0  0  0  0  0  0  0  0  0  0
   32.4220   37.7030   28.4360 C   0  0  0  0  0  0  0  0  0  0  0  0
   31.4760   39.0490   26.5420 C   0  0  0  0  0  0  0  0  0  0  0  0
   31.9960   40.1930   25.9290 O   0  0  0  0  0  0  0  0  0  0  0  0
   33.6190   35.4730   18.5730 O   0  0  0  0  0  0  0  0  0  0  0  0
   34.8700   35.6010   17.9560 C   0  0  0  0  0  0  0  0  0  0  0  0
   35.9930   35.8170   18.7620 C   0  0  0  0  0  0  0  0  0  0  0  0
   37.2620   35.9430   18.1900 C   0  0  0  0  0  0  0  0  0  0  0  0
   37.4180   35.8420   16.8070 C   0  0  0  0  0  0  0  0  0  0  0  0
   38.6480   35.9640   16.2520 F   0  0  0  0  0  0  0  0  0  0  0  0
   36.3070   35.6000   15.9940 C   0  0  0  0  0  0  0  0  0  0  0  0
   35.0350   35.4750   16.5620 C   0  0  0  0  0  0  0  0  0  0  0  0
   33.9850   35.1790   15.7570 F   0  0  0  0  0  0  0  0  0  0  0  0
   32.4012   36.0019   26.5952 H   0  0  0  0  0  0  0  0  0  0  0  0
   33.4541   38.9745   22.1610 H   0  0  0  0  0  0  0  0  0  0  0  0
   33.6399   37.7107   20.0716 H   0  0  0  0  0  0  0  0  0  0  0  0
   32.7279   33.4190   23.8645 H   0  0  0  0  0  0  0  0  0  0  0  0
   31.6880   32.8269   22.5248 H   0  0  0  0  0  0  0  0  0  0  0  0
   33.4470   32.4625   22.5248 H   0  0  0  0  0  0  0  0  0  0  0  0
   34.3573   39.0012   27.8070 H   0  0  0  0  0  0  0  0  0  0  0  0
   34.6179   38.1258   26.2603 H   0  0  0  0  0  0  0  0  0  0  0  0
   33.8008   39.7255   26.2603 H   0  0  0  0  0  0  0  0  0  0  0  0
   32.7717   38.5224   29.0812 H   0  0  0  0  0  0  0  0  0  0  0  0
   31.3600   37.5027   28.6409 H   0  0  0  0  0  0  0  0  0  0  0  0
   33.0121   36.7976   28.6409 H   0  0  0  0  0  0  0  0  0  0  0  0
   30.8184   38.5282   25.8304 H   0  0  0  0  0  0  0  0  0  0  0  0
   30.9138   39.3580   27.4355 H   0  0  0  0  0  0  0  0  0  0  0  0
   32.2881   40.8355   26.6232 H   0  0  0  0  0  0  0  0  0  0  0  0
   35.8764   35.8882   19.8535 H   0  0  0  0  0  0  0  0  0  0  0  0
   38.1383   36.1219   18.8304 H   0  0  0  0  0  0  0  0  0  0  0  0
   36.4334   35.5077   14.9052 H   0  0  0  0  0  0  0  0  0  0  0  0
  1 14  1  0
  1  2  1  0
  2  3  2  0
  2 13  1  0
  3  4  1  0
  4  5  2  0
  5 12  1  0
  5  6  1  0
  6  7  2  0
  7  8  1  0
  7 19  1  0
  8 10  1  0
  8  9  2  0
 10 12  1  0
 10 11  1  0
 12 13  2  0
 14 16  1  0
 14 15  1  0
 14 17  1  0
 17 18  1  0
 19 20  1  0
 20 21  2  0
 20 26  1  0
 21 22  1  0
 22 23  2  0
 23 24  1  0
 23 25  1  0
 25 26  2  0
 26 27  1  0
  1 28  1  0
  4 29  1  0
  6 30  1  0
 11 31  1  0
 11 32  1  0
 11 33  1  0
 15 34  1  0
 15 35  1  0
 15 36  1  0
 16 37  1  0
 16 38  1  0
 16 39  1  0
 17 40  1  0
 17 41  1  0
 18 42  1  0
 21 43  1  0
 22 44  1  0
 25 45  1  0
M  END
>  <s_m_entry_id>  (5) 
53

>  <MODEL>  (5) 
2

>  <REMARK>  (5) 
 VINA RESULT:    -7.960      2.177      2.856
 INTER + INTRA:          -9.709
 INTER:                  -9.645
 INTRA:                  -0.064
 UNBOUND:                 0.345
  Name = /scratch/kmzp800/tmpx7ad5p7n/tmp328e6ef2.pdb
  8 active torsions:
  status: ('A' for Active; 'I' for Inactive)
    1  A    between atoms: O1_1  and  C1_2
    2  A    between atoms: C1_2  and  C2_3
    3  A    between atoms: C2_3  and  N1_4
    4  A    between atoms: C2_3  and  C17_26
    5  A    between atoms: C2_3  and  C18_27
    6  A    between atoms: C7_10  and  O2_11
    7  A    between atoms: O2_11  and  C8_12
    8  A    between atoms: N3_22  and  C15_23
                            x       y       z     vdW  Elec       q    Type
                         _______ _______ _______ _____ _____    ______ ____

>  <TORSDO>  (5) 
F 5

>  <grid_id>  (5) 
p38-prepared

>  <grid_path>  (5) 
/projects/mai/users/kmzp800_harry/pmx_colab/docking_jobs/p38/vina_docking/input_files/p38_vina.pdbqt

>  <grid_filename>  (5) 
p38_vina.pdbqt

>  <docking_score>  (5) 
-7.96

>  <compound_name>  (5) 
lig_p38a_2z

>  <index_string>  (5) 
4:0:1

$$$$
lig_p38a_3fly
     RDKit          3D

 41 43  0  0  1  0  0  0  0  0999 V2000
   33.5870   36.0050   20.1140 C   0  0  0  0  0  0  0  0  0  0  0  0
   33.5430   37.3890   20.2690 C   0  0  0  0  0  0  0  0  0  0  0  0
   33.3040   37.9380   21.5230 C   0  0  0  0  0  0  0  0  0  0  0  0
   33.2650   39.3170   21.7100 C   0  0  0  0  0  0  0  0  0  0  0  0
   33.0350   39.8220   22.9500 N   0  0  0  0  0  0  0  0  0  0  0  0
   32.8410   39.0030   24.0180 C   0  0  0  0  0  0  0  0  0  0  0  0
   32.5990   39.5710   25.3060 N   0  0  0  0  0  0  0  0  0  0  0  0
   32.8730   37.6520   23.8510 N   0  0  0  0  0  0  0  0  0  0  0  0
   33.1000   37.0960   22.6290 C   0  0  0  0  0  0  0  0  0  0  0  0
   33.1240   35.7370   22.4670 N   0  0  0  0  0  0  0  0  0  0  0  0
   32.8940   34.8680   23.6190 C   0  0  0  0  0  0  0  0  0  0  0  0
   33.3480   35.1800   21.2340 C   0  0  0  0  0  0  0  0  0  0  0  0
   33.3140   33.9260   21.0910 O   0  0  0  0  0  0  0  0  0  0  0  0
   32.4080   38.7640   26.5020 C   0  0  0  0  0  0  0  0  0  0  0  0
   32.6330   39.6100   27.7400 C   0  0  0  0  0  0  0  0  0  0  0  0
   30.9940   38.2220   26.5220 C   0  0  0  0  0  0  0  0  0  0  0  0
   33.8250   35.4820   18.8350 O   0  0  0  0  0  0  0  0  0  0  0  0
   37.4380   35.9640   18.0780 C   0  0  0  0  0  0  0  0  0  0  0  0
   36.2490   35.8380   18.8010 C   0  0  0  0  0  0  0  0  0  0  0  0
   35.0350   35.5930   18.1370 C   0  0  0  0  0  0  0  0  0  0  0  0
   35.0280   35.4940   16.7380 C   0  0  0  0  0  0  0  0  0  0  0  0
   33.8650   35.2720   16.0760 F   0  0  0  0  0  0  0  0  0  0  0  0
   36.2190   35.6210   16.0160 C   0  0  0  0  0  0  0  0  0  0  0  0
   37.4220   35.8540   16.6860 C   0  0  0  0  0  0  0  0  0  0  0  0
   38.5750   35.9750   15.9840 F   0  0  0  0  0  0  0  0  0  0  0  0
   33.6972   38.0459   19.4002 H   0  0  0  0  0  0  0  0  0  0  0  0
   33.4197   39.9947   20.8575 H   0  0  0  0  0  0  0  0  0  0  0  0
   32.5579   40.5966   25.3921 H   0  0  0  0  0  0  0  0  0  0  0  0
   33.0455   35.4404   24.5461 H   0  0  0  0  0  0  0  0  0  0  0  0
   31.8634   34.4845   23.5891 H   0  0  0  0  0  0  0  0  0  0  0  0
   33.5999   34.0249   23.5891 H   0  0  0  0  0  0  0  0  0  0  0  0
   33.1285   37.9328   26.4933 H   0  0  0  0  0  0  0  0  0  0  0  0
   32.4698   38.9963   28.6381 H   0  0  0  0  0  0  0  0  0  0  0  0
   33.6642   39.9929   27.7400 H   0  0  0  0  0  0  0  0  0  0  0  0
   31.9283   40.4546   27.7400 H   0  0  0  0  0  0  0  0  0  0  0  0
   30.6644   38.0957   27.5638 H   0  0  0  0  0  0  0  0  0  0  0  0
   30.3238   38.9270   26.0083 H   0  0  0  0  0  0  0  0  0  0  0  0
   30.9667   37.2497   26.0083 H   0  0  0  0  0  0  0  0  0  0  0  0
   38.3857   36.1496   18.6048 H   0  0  0  0  0  0  0  0  0  0  0  0
   36.2633   35.9312   19.8970 H   0  0  0  0  0  0  0  0  0  0  0  0
   36.2082   35.5373   14.9192 H   0  0  0  0  0  0  0  0  0  0  0  0
  1  2  2  0
  1 12  1  0
  1 17  1  0
  2  3  1  0
  3  4  2  0
  3  9  1  0
  4  5  1  0
  5  6  2  0
  6  7  1  0
  6  8  1  0
  7 14  1  0
  8  9  2  0
  9 10  1  0
 10 11  1  0
 10 12  1  0
 12 13  2  0
 14 16  1  0
 14 15  1  0
 17 20  1  0
 18 19  2  0
 18 24  1  0
 19 20  1  0
 20 21  2  0
 21 22  1  0
 21 23  1  0
 23 24  2  0
 24 25  1  0
  2 26  1  0
  4 27  1  0
  7 28  1  0
 11 29  1  0
 11 30  1  0
 11 31  1  0
 14 32  1  0
 15 33  1  0
 15 34  1  0
 15 35  1  0
 16 36  1  0
 16 37  1  0
 16 38  1  0
 18 39  1  0
 19 40  1  0
 23 41  1  0
M  END
>  <s_m_entry_id>  (6) 
54

>  <MODEL>  (6) 
1

>  <REMARK>  (6) 
 VINA RESULT:    -8.252      0.000      0.000
 INTER + INTRA:         -10.081
 INTER:                  -9.715
 INTRA:                  -0.366
 UNBOUND:                -0.382
  Name = /scratch/kmzp800/tmpdsbm7r4n/tmp2oc017za.pdb
  6 active torsions:
  status: ('A' for Active; 'I' for Inactive)
    1  A    between atoms: C3_3  and  O1_4
    2  A    between atoms: O1_4  and  C4_5
    3  A    between atoms: N2_11  and  C9_12
    4  A    between atoms: C9_12  and  C10_13
    5  A    between atoms: C9_12  and  C11_14
    6  A    between atoms: N4_17  and  C13_18
                            x       y       z     vdW  Elec       q    Type
                         _______ _______ _______ _____ _____    ______ ____

>  <TORSDO>  (6) 
F 3

>  <grid_id>  (6) 
p38-prepared

>  <grid_path>  (6) 
/projects/mai/users/kmzp800_harry/pmx_colab/docking_jobs/p38/vina_docking/input_files/p38_vina.pdbqt

>  <grid_filename>  (6) 
p38_vina.pdbqt

>  <docking_score>  (6) 
-8.252

>  <compound_name>  (6) 
lig_p38a_3fly

>  <index_string>  (6) 
5:0:0

$$$$
lig_p38a_2gg
     RDKit          3D

 48 51  0  0  1  0  0  0  0  0999 V2000
   33.8350   35.9930   20.0630 C   0  0  0  0  0  0  0  0  0  0  0  0
   33.8540   37.3770   20.2310 C   0  0  0  0  0  0  0  0  0  0  0  0
   33.8330   37.9200   21.5090 C   0  0  0  0  0  0  0  0  0  0  0  0
   33.8610   39.2970   21.7080 C   0  0  0  0  0  0  0  0  0  0  0  0
   33.8440   39.7970   22.9710 N   0  0  0  0  0  0  0  0  0  0  0  0
   33.8020   38.9740   24.0520 C   0  0  0  0  0  0  0  0  0  0  0  0
   33.7830   39.5410   25.3660 N   0  0  0  0  0  0  0  0  0  0  0  0
   33.7710   37.6240   23.8750 N   0  0  0  0  0  0  0  0  0  0  0  0
   33.7850   37.0740   22.6290 C   0  0  0  0  0  0  0  0  0  0  0  0
   33.7450   35.7160   22.4590 N   0  0  0  0  0  0  0  0  0  0  0  0
   33.6760   34.8430   23.6270 C   0  0  0  0  0  0  0  0  0  0  0  0
   33.7560   35.1640   21.2030 C   0  0  0  0  0  0  0  0  0  0  0  0
   33.6720   33.9130   21.0630 O   0  0  0  0  0  0  0  0  0  0  0  0
   33.7770   38.7720   26.6070 C   0  0  0  0  0  0  0  0  0  0  0  0
   32.4420   38.0230   26.7930 C   0  0  0  0  0  0  0  0  0  0  0  0
   31.5110   38.6630   27.8190 C   0  0  0  0  0  0  0  0  0  0  0  0
   32.3160   38.6810   29.4080 S   0  0  0  0  0  6  0  0  0  0  0  0
   32.0880   37.3750   30.1140 O   0  0  0  0  0  0  0  0  0  0  0  0
   31.7740   39.8080   30.2400 O   0  0  0  0  0  0  0  0  0  0  0  0
   34.0570   38.9160   29.1230 C   0  0  0  0  0  0  0  0  0  0  0  0
   34.2460   39.6300   27.7930 C   0  0  0  0  0  0  0  0  0  0  0  0
   33.8530   35.4810   18.7580 O   0  0  0  0  0  0  0  0  0  0  0  0
   37.3100   35.9000   17.5300 C   0  0  0  0  0  0  0  0  0  0  0  0
   36.2060   35.8020   18.3810 C   0  0  0  0  0  0  0  0  0  0  0  0
   34.9260   35.5820   17.8610 C   0  0  0  0  0  0  0  0  0  0  0  0
   34.7630   35.4290   16.4680 C   0  0  0  0  0  0  0  0  0  0  0  0
   33.5520   35.1440   15.9300 F   0  0  0  0  0  0  0  0  0  0  0  0
   35.8720   35.5270   15.6210 C   0  0  0  0  0  0  0  0  0  0  0  0
   37.1410   35.7700   16.1490 C   0  0  0  0  0  0  0  0  0  0  0  0
   38.2110   35.8660   15.3240 F   0  0  0  0  0  0  0  0  0  0  0  0
   33.8856   38.0380   19.3523 H   0  0  0  0  0  0  0  0  0  0  0  0
   33.8968   39.9785   20.8453 H   0  0  0  0  0  0  0  0  0  0  0  0
   33.7728   40.5682   25.4418 H   0  0  0  0  0  0  0  0  0  0  0  0
   33.7240   35.4509   24.5425 H   0  0  0  0  0  0  0  0  0  0  0  0
   32.7306   34.2809   23.6093 H   0  0  0  0  0  0  0  0  0  0  0  0
   34.5213   34.1394   23.6093 H   0  0  0  0  0  0  0  0  0  0  0  0
   34.5246   37.9671   26.5503 H   0  0  0  0  0  0  0  0  0  0  0  0
   31.9225   37.9954   25.8238 H   0  0  0  0  0  0  0  0  0  0  0  0
   32.6890   37.0191   27.1688 H   0  0  0  0  0  0  0  0  0  0  0  0
   31.2784   39.6935   27.5126 H   0  0  0  0  0  0  0  0  0  0  0  0
   30.5779   38.0841   27.8836 H   0  0  0  0  0  0  0  0  0  0  0  0
   34.4850   39.5247   29.9331 H   0  0  0  0  0  0  0  0  0  0  0  0
   34.5658   37.9411   29.0985 H   0  0  0  0  0  0  0  0  0  0  0  0
   35.3133   39.8623   27.6632 H   0  0  0  0  0  0  0  0  0  0  0  0
   33.6385   40.5468   27.8103 H   0  0  0  0  0  0  0  0  0  0  0  0
   38.3119   36.0794   17.9471 H   0  0  0  0  0  0  0  0  0  0  0  0
   36.3444   35.8986   19.4680 H   0  0  0  0  0  0  0  0  0  0  0  0
   35.7435   35.4121   14.5346 H   0  0  0  0  0  0  0  0  0  0  0  0
  1  2  2  0
  1 12  1  0
  1 22  1  0
  2  3  1  0
  3  4  2  0
  3  9  1  0
  4  5  1  0
  5  6  2  0
  6  7  1  0
  6  8  1  0
  7 14  1  0
  8  9  2  0
  9 10  1  0
 10 11  1  0
 10 12  1  0
 12 13  2  0
 14 15  1  0
 14 21  1  0
 15 16  1  0
 16 17  1  0
 17 18  2  0
 17 19  2  0
 17 20  1  0
 20 21  1  0
 22 25  1  0
 23 24  2  0
 23 29  1  0
 24 25  1  0
 25 26  2  0
 26 27  1  0
 26 28  1  0
 28 29  2  0
 29 30  1  0
  2 31  1  0
  4 32  1  0
  7 33  1  0
 11 34  1  0
 11 35  1  0
 11 36  1  0
 14 37  1  0
 15 38  1  0
 15 39  1  0
 16 40  1  0
 16 41  1  0
 20 42  1  0
 20 43  1  0
 21 44  1  0
 21 45  1  0
 23 46  1  0
 24 47  1  0
 28 48  1  0
M  END
>  <s_m_entry_id>  (7) 
55

>  <MODEL>  (7) 
2

>  <REMARK>  (7) 
 VINA RESULT:   -11.188      1.316      1.872
 INTER + INTRA:         -10.312
 INTER:                  -9.912
 INTRA:                  -0.400
 UNBOUND:                 2.839
  Name = /scratch/kmzp800/tmp7m54wnta/tmp6k0hay_u.pdb
  4 active torsions:
  status: ('A' for Active; 'I' for Inactive)
    1  A    between atoms: C3_3  and  O1_4
    2  A    between atoms: O1_4  and  C4_5
    3  A    between atoms: N2_11  and  C9_12
    4  A    between atoms: N4_22  and  C15_23
                            x       y       z     vdW  Elec       q    Type
                         _______ _______ _______ _____ _____    ______ ____

>  <TORSDO>  (7) 
F 3

>  <grid_id>  (7) 
p38-prepared

>  <grid_path>  (7) 
/projects/mai/users/kmzp800_harry/pmx_colab/docking_jobs/p38/vina_docking/input_files/p38_vina.pdbqt

>  <grid_filename>  (7) 
p38_vina.pdbqt

>  <docking_score>  (7) 
-11.188

>  <compound_name>  (7) 
lig_p38a_2gg

>  <index_string>  (7) 
6:0:1

$$$$
lig_p38a_3flq
     RDKit          3D

 47 49  0  0  1  0  0  0  0  0999 V2000
   33.6280   35.2930   19.6360 C   0  0  0  0  0  0  0  0  0  0  0  0
   33.6020   36.5920   20.1580 C   0  0  0  0  0  0  0  0  0  0  0  0
   33.2580   36.7960   21.4880 C   0  0  0  0  0  0  0  0  0  0  0  0
   33.2300   38.0750   22.0370 C   0  0  0  0  0  0  0  0  0  0  0  0
   32.8910   38.2390   23.3420 N   0  0  0  0  0  0  0  0  0  0  0  0
   32.5750   37.1720   24.1270 C   0  0  0  0  0  0  0  0  0  0  0  0
   32.2180   37.3540   25.5030 N   0  0  0  0  0  0  0  0  0  0  0  0
   32.5960   35.9170   23.6040 N   0  0  0  0  0  0  0  0  0  0  0  0
   32.9300   35.6990   22.3020 C   0  0  0  0  0  0  0  0  0  0  0  0
   32.9480   34.4320   21.7810 N   0  0  0  0  0  0  0  0  0  0  0  0
   32.6010   33.2960   22.6310 C   0  0  0  0  0  0  0  0  0  0  0  0
   33.2850   34.2170   20.4700 C   0  0  0  0  0  0  0  0  0  0  0  0
   33.2930   33.0450   19.9990 O   0  0  0  0  0  0  0  0  0  0  0  0
   32.1570   38.6420   26.1880 C   0  0  0  0  0  0  0  0  0  0  0  0
   31.4980   39.6890   25.3030 C   0  0  0  0  0  0  0  0  0  0  0  0
   33.5460   39.0850   26.6300 C   0  0  0  0  0  0  0  0  0  0  0  0
   34.3890   37.7820   27.5090 S   0  0  0  0  0  6  0  0  0  0  0  0
   35.1430   36.9130   26.5430 O   0  0  0  0  0  0  0  0  0  0  0  0
   33.3770   36.9470   28.2400 O   0  0  0  0  0  0  0  0  0  0  0  0
   35.5250   38.4820   28.6860 C   0  0  0  0  0  0  0  0  0  0  0  0
   33.9490   35.0510   18.2920 O   0  0  0  0  0  0  0  0  0  0  0  0
   36.3110   35.9800   15.6090 C   0  0  0  0  0  0  0  0  0  0  0  0
   35.1430   35.6020   16.2760 C   0  0  0  0  0  0  0  0  0  0  0  0
   35.1410   35.4390   17.6660 C   0  0  0  0  0  0  0  0  0  0  0  0
   36.3380   35.6270   18.3840 C   0  0  0  0  0  0  0  0  0  0  0  0
   36.3960   35.3960   19.7190 F   0  0  0  0  0  0  0  0  0  0  0  0
   37.5050   36.0050   17.7120 C   0  0  0  0  0  0  0  0  0  0  0  0
   37.4890   36.1900   16.3270 C   0  0  0  0  0  0  0  0  0  0  0  0
   38.6210   36.5560   15.6790 F   0  0  0  0  0  0  0  0  0  0  0  0
   33.8535   37.4491   19.5160 H   0  0  0  0  0  0  0  0  0  0  0  0
   33.4811   38.9483   21.4171 H   0  0  0  0  0  0  0  0  0  0  0  0
   31.9870   36.5125   26.0501 H   0  0  0  0  0  0  0  0  0  0  0  0
   32.6902   33.5880   23.6878 H   0  0  0  0  0  0  0  0  0  0  0  0
   31.5668   32.9846   22.4227 H   0  0  0  0  0  0  0  0  0  0  0  0
   33.2847   32.4598   22.4227 H   0  0  0  0  0  0  0  0  0  0  0  0
   31.5395   38.5269   27.0910 H   0  0  0  0  0  0  0  0  0  0  0  0
   31.0177   40.4520   25.9332 H   0  0  0  0  0  0  0  0  0  0  0  0
   32.2600   40.1645   24.6679 H   0  0  0  0  0  0  0  0  0  0  0  0
   30.7397   39.2076   24.6679 H   0  0  0  0  0  0  0  0  0  0  0  0
   34.1350   39.3582   25.7421 H   0  0  0  0  0  0  0  0  0  0  0  0
   33.4385   39.9473   27.3044 H   0  0  0  0  0  0  0  0  0  0  0  0
   35.1750   38.2664   29.7063 H   0  0  0  0  0  0  0  0  0  0  0  0
   36.5223   38.0416   28.5397 H   0  0  0  0  0  0  0  0  0  0  0  0
   35.5800   39.5708   28.5397 H   0  0  0  0  0  0  0  0  0  0  0  0
   36.3020   36.1122   14.5170 H   0  0  0  0  0  0  0  0  0  0  0  0
   34.2186   35.4313   15.7047 H   0  0  0  0  0  0  0  0  0  0  0  0
   38.4376   36.1570   18.2751 H   0  0  0  0  0  0  0  0  0  0  0  0
  1  2  2  0
  1 12  1  0
  1 21  1  0
  2  3  1  0
  3  4  2  0
  3  9  1  0
  4  5  1  0
  5  6  2  0
  6  7  1  0
  6  8  1  0
  7 14  1  0
  8  9  2  0
  9 10  1  0
 10 11  1  0
 10 12  1  0
 12 13  2  0
 14 15  1  0
 14 16  1  0
 16 17  1  0
 17 19  2  0
 17 20  1  0
 17 18  2  0
 21 24  1  0
 22 23  2  0
 22 28  1  0
 23 24  1  0
 24 25  2  0
 25 26  1  0
 25 27  1  0
 27 28  2  0
 28 29  1  0
  2 30  1  0
  4 31  1  0
  7 32  1  0
 11 33  1  0
 11 34  1  0
 11 35  1  0
 14 36  1  0
 15 37  1  0
 15 38  1  0
 15 39  1  0
 16 40  1  0
 16 41  1  0
 20 42  1  0
 20 43  1  0
 20 44  1  0
 22 45  1  0
 23 46  1  0
 27 47  1  0
M  END
>  <s_m_entry_id>  (8) 
56

>  <MODEL>  (8) 
5

>  <REMARK>  (8) 
 VINA RESULT:   -14.634      1.607      2.112
 INTER + INTRA:         -10.041
 INTER:                  -9.884
 INTRA:                  -0.157
 UNBOUND:                 8.871
  Name = /scratch/kmzp800/tmp767r_g__/tmpide5mm5u.pdb
  8 active torsions:
  status: ('A' for Active; 'I' for Inactive)
    1  A    between atoms: C3_3  and  O1_4
    2  A    between atoms: O1_4  and  C4_5
    3  A    between atoms: N2_11  and  C9_12
    4  A    between atoms: C9_12  and  C10_13
    5  A    between atoms: C9_12  and  C11_14
    6  A    between atoms: C11_14  and  S1_15
    7  A    between atoms: S1_15  and  C12_18
    8  A    between atoms: N4_21  and  C14_22
                            x       y       z     vdW  Elec       q    Type
                         _______ _______ _______ _____ _____    ______ ____

>  <TORSDO>  (8) 
F 5

>  <grid_id>  (8) 
p38-prepared

>  <grid_path>  (8) 
/projects/mai/users/kmzp800_harry/pmx_colab/docking_jobs/p38/vina_docking/input_files/p38_vina.pdbqt

>  <grid_filename>  (8) 
p38_vina.pdbqt

>  <docking_score>  (8) 
-14.634

>  <compound_name>  (8) 
lig_p38a_3flq

>  <index_string>  (8) 
7:0:4

$$$$
lig_p38a_2k
     RDKit          3D

 43 46  0  0  1  0  0  0  0  0999 V2000
   34.5400   35.9310   20.5510 C   0  0  0  0  0  0  0  0  0  0  0  0
   34.6300   37.1400   21.2570 C   0  0  0  0  0  0  0  0  0  0  0  0
   34.7300   37.1230   22.6460 C   0  0  0  0  0  0  0  0  0  0  0  0
   34.8300   38.2980   23.3860 C   0  0  0  0  0  0  0  0  0  0  0  0
   34.9260   38.2320   24.7400 N   0  0  0  0  0  0  0  0  0  0  0  0
   34.9270   37.0330   25.3910 C   0  0  0  0  0  0  0  0  0  0  0  0
   35.0290   36.9750   26.8180 N   0  0  0  0  0  0  0  0  0  0  0  0
   34.8300   35.8760   24.6810 N   0  0  0  0  0  0  0  0  0  0  0  0
   34.7320   35.8960   23.3260 C   0  0  0  0  0  0  0  0  0  0  0  0
   34.6330   34.7350   22.6280 N   0  0  0  0  0  0  0  0  0  0  0  0
   34.5340   34.7250   21.2700 C   0  0  0  0  0  0  0  0  0  0  0  0
   34.4390   33.6260   20.6620 O   0  0  0  0  0  0  0  0  0  0  0  0
   35.1380   38.1390   27.6930 C   0  0  0  0  0  0  0  0  0  0  0  0
   35.5720   37.7290   29.1010 C   0  0  0  0  0  0  0  0  0  0  0  0
   35.4830   38.9460   30.0220 C   0  0  0  0  0  0  0  0  0  0  0  0
   34.1640   39.4360   30.0450 O   0  0  0  0  0  0  0  0  0  0  0  0
   33.9270   40.0190   28.7880 C   0  0  0  0  0  0  0  0  0  0  0  0
   33.8290   38.9310   27.7180 C   0  0  0  0  0  0  0  0  0  0  0  0
   34.4150   35.9040   19.1530 O   0  0  0  0  0  0  0  0  0  0  0  0
   36.2470   35.6190   15.9590 C   0  0  0  0  0  0  0  0  0  0  0  0
   35.2100   35.6720   16.8930 C   0  0  0  0  0  0  0  0  0  0  0  0
   35.4870   35.8670   18.2510 C   0  0  0  0  0  0  0  0  0  0  0  0
   36.8270   35.9720   18.6740 C   0  0  0  0  0  0  0  0  0  0  0  0
   37.1390   36.0740   19.9890 F   0  0  0  0  0  0  0  0  0  0  0  0
   37.8620   35.9160   17.7350 C   0  0  0  0  0  0  0  0  0  0  0  0
   37.5730   35.7490   16.3780 C   0  0  0  0  0  0  0  0  0  0  0  0
   38.5780   35.6970   15.4730 F   0  0  0  0  0  0  0  0  0  0  0  0
   34.6216   38.0975   20.7156 H   0  0  0  0  0  0  0  0  0  0  0  0
   34.8313   39.2736   22.8779 H   0  0  0  0  0  0  0  0  0  0  0  0
   35.0252   36.0444   27.2595 H   0  0  0  0  0  0  0  0  0  0  0  0
   34.6328   33.8403   23.1384 H   0  0  0  0  0  0  0  0  0  0  0  0
   35.9176   38.7995   27.2856 H   0  0  0  0  0  0  0  0  0  0  0  0
   34.9096   36.9342   29.4746 H   0  0  0  0  0  0  0  0  0  0  0  0
   36.6061   37.3548   29.0775 H   0  0  0  0  0  0  0  0  0  0  0  0
   35.7815   38.6552   31.0400 H   0  0  0  0  0  0  0  0  0  0  0  0
   36.1543   39.7327   29.6471 H   0  0  0  0  0  0  0  0  0  0  0  0
   32.9839   40.5843   28.8204 H   0  0  0  0  0  0  0  0  0  0  0  0
   34.7585   40.6953   28.5407 H   0  0  0  0  0  0  0  0  0  0  0  0
   33.6593   39.3945   26.7349 H   0  0  0  0  0  0  0  0  0  0  0  0
   32.9907   38.2571   27.9483 H   0  0  0  0  0  0  0  0  0  0  0  0
   36.0193   35.4748   14.8925 H   0  0  0  0  0  0  0  0  0  0  0  0
   34.1680   35.5597   16.5589 H   0  0  0  0  0  0  0  0  0  0  0  0
   38.9074   36.0037   18.0659 H   0  0  0  0  0  0  0  0  0  0  0  0
  1  2  2  0
  1 11  1  0
  1 19  1  0
  2  3  1  0
  3  9  2  0
  3  4  1  0
  4  5  2  0
  5  6  1  0
  6  7  1  0
  6  8  2  0
  7 13  1  0
  8  9  1  0
  9 10  1  0
 10 11  1  0
 11 12  2  0
 13 18  1  0
 13 14  1  0
 14 15  1  0
 15 16  1  0
 16 17  1  0
 17 18  1  0
 19 22  1  0
 20 26  2  0
 20 21  1  0
 21 22  2  0
 22 23  1  0
 23 24  1  0
 23 25  2  0
 25 26  1  0
 26 27  1  0
  2 28  1  0
  4 29  1  0
  7 30  1  0
 10 31  1  0
 13 32  1  0
 14 33  1  0
 14 34  1  0
 15 35  1  0
 15 36  1  0
 17 37  1  0
 17 38  1  0
 18 39  1  0
 18 40  1  0
 20 41  1  0
 21 42  1  0
 25 43  1  0
M  END
>  <s_m_entry_id>  (9) 
58

>  <MODEL>  (9) 
7

>  <REMARK>  (9) 
 VINA RESULT:    -9.947      1.907      2.364
 INTER + INTRA:          -9.004
 INTER:                  -9.130
 INTRA:                   0.127
 UNBOUND:                 2.688
  Name = /scratch/kmzp800/tmpgjrv6qg7/tmpn4b648xv.pdb
  3 active torsions:
  status: ('A' for Active; 'I' for Inactive)
    1  A    between atoms: C3_3  and  O1_4
    2  A    between atoms: O1_4  and  C4_5
    3  A    between atoms: N2_11  and  C9_12
                            x       y       z     vdW  Elec       q    Type
                         _______ _______ _______ _____ _____    ______ ____

>  <TORSDO>  (9) 
F 3

>  <grid_id>  (9) 
p38-prepared

>  <grid_path>  (9) 
/projects/mai/users/kmzp800_harry/pmx_colab/docking_jobs/p38/vina_docking/input_files/p38_vina.pdbqt

>  <grid_filename>  (9) 
p38_vina.pdbqt

>  <docking_score>  (9) 
-9.947

>  <compound_name>  (9) 
lig_p38a_2k

>  <index_string>  (9) 
9:0:6

$$$$
lig_p38a_2s
     RDKit          3D

 54 57  0  0  1  0  0  0  0  0999 V2000
   32.6090   35.4780   22.4050 N   0  0  0  0  0  0  0  0  0  0  0  0
   32.8310   35.2020   21.0780 C   0  0  0  0  0  0  0  0  0  0  0  0
   32.2090   34.2610   20.5110 O   0  0  0  0  0  0  0  0  0  0  0  0
   33.7480   35.9600   20.3350 C   0  0  0  0  0  0  0  0  0  0  0  0
   34.4050   37.0300   20.9520 C   0  0  0  0  0  0  0  0  0  0  0  0
   34.1530   37.3180   22.2860 C   0  0  0  0  0  0  0  0  0  0  0  0
   34.7860   38.3810   22.9240 C   0  0  0  0  0  0  0  0  0  0  0  0
   34.5100   38.6450   24.2280 N   0  0  0  0  0  0  0  0  0  0  0  0
   33.6210   37.8840   24.9250 C   0  0  0  0  0  0  0  0  0  0  0  0
   33.3360   38.1710   26.2960 N   0  0  0  0  0  0  0  0  0  0  0  0
   32.9950   36.8420   24.3160 N   0  0  0  0  0  0  0  0  0  0  0  0
   33.2420   36.5330   23.0120 C   0  0  0  0  0  0  0  0  0  0  0  0
   33.9930   39.2410   27.0350 C   0  0  0  0  0  0  0  0  0  0  0  0
   35.2930   38.7240   27.6700 C   0  0  0  0  0  0  0  0  0  0  0  0
   35.0590   38.0660   29.0390 C   0  0  0  0  0  0  0  0  0  0  0  0
   33.6970   37.7810   29.2430 O   0  0  0  0  0  0  0  0  0  0  0  0
   33.0670   39.0260   29.4050 C   0  0  0  0  0  0  0  0  0  0  0  0
   33.0250   39.8060   28.0820 C   0  0  0  0  0  0  0  0  0  0  0  0
   31.6630   34.6560   23.1700 C   0  0  0  0  0  0  0  0  0  0  0  0
   32.3390   33.4550   23.8390 C   0  0  0  0  0  0  0  0  0  0  0  0
   32.1080   32.2850   23.1130 O   0  0  0  0  0  0  0  0  0  0  0  0
   31.8800   33.2810   25.2770 C   0  0  0  0  0  0  0  0  0  0  0  0
   31.6030   34.5270   25.8410 O   0  0  0  0  0  0  0  0  0  0  0  0
   33.9530   35.6600   18.9790 O   0  0  0  0  0  0  0  0  0  0  0  0
   35.1900   35.7140   18.3210 C   0  0  0  0  0  0  0  0  0  0  0  0
   36.3400   35.9540   19.0810 C   0  0  0  0  0  0  0  0  0  0  0  0
   37.5930   36.0250   18.4670 C   0  0  0  0  0  0  0  0  0  0  0  0
   37.7030   35.8630   17.0840 C   0  0  0  0  0  0  0  0  0  0  0  0
   38.9180   35.9310   16.4890 F   0  0  0  0  0  0  0  0  0  0  0  0
   36.5580   35.6490   16.3130 C   0  0  0  0  0  0  0  0  0  0  0  0
   35.3020   35.5750   16.9220 C   0  0  0  0  0  0  0  0  0  0  0  0
   34.2020   35.4290   16.1450 F   0  0  0  0  0  0  0  0  0  0  0  0
   35.1194   37.6414   20.3813 H   0  0  0  0  0  0  0  0  0  0  0  0
   35.5067   39.0047   22.3748 H   0  0  0  0  0  0  0  0  0  0  0  0
   32.6346   37.5954   26.7834 H   0  0  0  0  0  0  0  0  0  0  0  0
   34.2672   40.0575   26.3508 H   0  0  0  0  0  0  0  0  0  0  0  0
   35.7446   37.9822   26.9948 H   0  0  0  0  0  0  0  0  0  0  0  0
   35.9562   39.5880   27.8238 H   0  0  0  0  0  0  0  0  0  0  0  0
   35.6326   37.1287   29.0887 H   0  0  0  0  0  0  0  0  0  0  0  0
   35.3882   38.7658   29.8213 H   0  0  0  0  0  0  0  0  0  0  0  0
   32.0380   38.8637   29.7583 H   0  0  0  0  0  0  0  0  0  0  0  0
   33.6412   39.6134   30.1366 H   0  0  0  0  0  0  0  0  0  0  0  0
   33.2939   40.8538   28.2817 H   0  0  0  0  0  0  0  0  0  0  0  0
   32.0064   39.7198   27.6758 H   0  0  0  0  0  0  0  0  0  0  0  0
   31.2022   35.2809   23.9492 H   0  0  0  0  0  0  0  0  0  0  0  0
   30.9115   34.2682   22.4665 H   0  0  0  0  0  0  0  0  0  0  0  0
   33.4205   33.6556   23.8513 H   0  0  0  0  0  0  0  0  0  0  0  0
   31.9594   31.5323   23.7387 H   0  0  0  0  0  0  0  0  0  0  0  0
   30.9714   32.6612   25.2974 H   0  0  0  0  0  0  0  0  0  0  0  0
   32.6774   32.7909   25.8550 H   0  0  0  0  0  0  0  0  0  0  0  0
   31.6194   34.4534   26.8281 H   0  0  0  0  0  0  0  0  0  0  0  0
   36.2570   36.0877   20.1697 H   0  0  0  0  0  0  0  0  0  0  0  0
   38.4927   36.2085   19.0726 H   0  0  0  0  0  0  0  0  0  0  0  0
   36.6451   35.5383   15.2221 H   0  0  0  0  0  0  0  0  0  0  0  0
  1 12  1  0
  1 19  1  0
  1  2  1  0
  2  3  2  0
  2  4  1  0
  4  5  2  0
  4 24  1  0
  5  6  1  0
  6  7  1  0
  6 12  2  0
  7  8  2  0
  8  9  1  0
  9 10  1  0
  9 11  2  0
 10 13  1  0
 11 12  1  0
 13 14  1  0
 13 18  1  0
 14 15  1  0
 15 16  1  0
 16 17  1  0
 17 18  1  0
 19 20  1  0
 20 22  1  0
 20 21  1  0
 22 23  1  0
 24 25  1  0
 25 26  2  0
 25 31  1  0
 26 27  1  0
 27 28  2  0
 28 29  1  0
 28 30  1  0
 30 31  2  0
 31 32  1  0
  5 33  1  0
  7 34  1  0
 10 35  1  0
 13 36  1  0
 14 37  1  0
 14 38  1  0
 15 39  1  0
 15 40  1  0
 17 41  1  0
 17 42  1  0
 18 43  1  0
 18 44  1  0
 19 45  1  0
 19 46  1  0
 20 47  1  0
 21 48  1  0
 22 49  1  0
 22 50  1  0
 23 51  1  0
 26 52  1  0
 27 53  1  0
 30 54  1  0
M  END
>  <s_m_entry_id>  (10) 
59

>  <MODEL>  (10) 
4

>  <REMARK>  (10) 
 VINA RESULT:    -7.451      1.543      1.938
 INTER + INTRA:         -11.464
 INTER:                 -10.671
 INTRA:                  -0.793
 UNBOUND:                -0.963
  Name = /scratch/kmzp800/tmpccmxu4zk/tmpd64k2tti.pdb
  8 active torsions:
  status: ('A' for Active; 'I' for Inactive)
    1  A    between atoms: O1_1  and  C1_2
    2  A    between atoms: C1_2  and  C2_3
    3  A    between atoms: C2_3  and  O2_4
    4  A    between atoms: C2_3  and  C3_5
    5  A    between atoms: C3_5  and  N1_6
    6  A    between atoms: C5_9  and  O4_10
    7  A    between atoms: O4_10  and  C6_11
    8  A    between atoms: N3_24  and  C16_25
                            x       y       z     vdW  Elec       q    Type
                         _______ _______ _______ _____ _____    ______ ____

>  <TORSDO>  (10) 
F 8

>  <grid_id>  (10) 
p38-prepared

>  <grid_path>  (10) 
/projects/mai/users/kmzp800_harry/pmx_colab/docking_jobs/p38/vina_docking/input_files/p38_vina.pdbqt

>  <grid_filename>  (10) 
p38_vina.pdbqt

>  <docking_score>  (10) 
-7.451

>  <compound_name>  (10) 
lig_p38a_2s

>  <index_string>  (10) 
10:0:3

$$$$
lig_p38a_2r
     RDKit          3D

 56 59  0  0  1  0  0  0  0  0999 V2000
   33.0030   37.0540   21.9540 N   0  0  0  0  0  0  0  0  0  0  0  0
   33.3170   36.9210   20.6240 C   0  0  0  0  0  0  0  0  0  0  0  0
   33.5540   37.9410   19.9200 O   0  0  0  0  0  0  0  0  0  0  0  0
   33.3850   35.6510   20.0280 C   0  0  0  0  0  0  0  0  0  0  0  0
   33.1660   34.5170   20.8190 C   0  0  0  0  0  0  0  0  0  0  0  0
   32.8750   34.6610   22.1680 C   0  0  0  0  0  0  0  0  0  0  0  0
   32.6640   33.5520   22.9810 C   0  0  0  0  0  0  0  0  0  0  0  0
   32.3930   33.7250   24.3000 N   0  0  0  0  0  0  0  0  0  0  0  0
   32.3280   34.9710   24.8470 C   0  0  0  0  0  0  0  0  0  0  0  0
   32.0460   35.1430   26.2360 N   0  0  0  0  0  0  0  0  0  0  0  0
   32.5340   36.0650   24.0660 N   0  0  0  0  0  0  0  0  0  0  0  0
   32.8020   35.9450   22.7350 C   0  0  0  0  0  0  0  0  0  0  0  0
   31.7710   34.0270   27.1330 C   0  0  0  0  0  0  0  0  0  0  0  0
   30.6600   34.4090   28.1240 C   0  0  0  0  0  0  0  0  0  0  0  0
   31.2010   35.1380   29.3640 C   0  0  0  0  0  0  0  0  0  0  0  0
   32.5160   35.5880   29.1600 O   0  0  0  0  0  0  0  0  0  0  0  0
   33.3150   34.4330   29.1270 C   0  0  0  0  0  0  0  0  0  0  0  0
   33.0650   33.6170   27.8480 C   0  0  0  0  0  0  0  0  0  0  0  0
   32.9170   38.3930   22.5500 C   0  0  0  0  0  0  0  0  0  0  0  0
   34.2900   38.9650   22.9180 C   0  0  0  0  0  0  0  0  0  0  0  0
   35.3070   37.8450   22.8590 C   0  0  0  0  0  0  0  0  0  0  0  0
   34.2860   39.5380   24.3220 C   0  0  0  0  0  0  0  0  0  0  0  0
   34.6630   39.9600   22.0150 O   0  0  0  0  0  0  0  0  0  0  0  0
   33.7120   35.5420   18.6680 O   0  0  0  0  0  0  0  0  0  0  0  0
   35.0100   35.6220   18.1450 C   0  0  0  0  0  0  0  0  0  0  0  0
   36.0740   35.8320   19.0300 C   0  0  0  0  0  0  0  0  0  0  0  0
   37.3840   35.9270   18.5520 C   0  0  0  0  0  0  0  0  0  0  0  0
   37.6380   35.8220   17.1830 C   0  0  0  0  0  0  0  0  0  0  0  0
   38.9080   35.9130   16.7210 F   0  0  0  0  0  0  0  0  0  0  0  0
   36.5810   35.6390   16.2890 C   0  0  0  0  0  0  0  0  0  0  0  0
   35.2680   35.5420   16.7620 C   0  0  0  0  0  0  0  0  0  0  0  0
   34.2550   35.4260   15.8680 F   0  0  0  0  0  0  0  0  0  0  0  0
   33.2245   33.5136   20.3719 H   0  0  0  0  0  0  0  0  0  0  0  0
   32.7166   32.5385   22.5566 H   0  0  0  0  0  0  0  0  0  0  0  0
   32.0364   36.0981   26.6215 H   0  0  0  0  0  0  0  0  0  0  0  0
   31.4122   33.1606   26.5580 H   0  0  0  0  0  0  0  0  0  0  0  0
   29.9427   35.0678   27.6127 H   0  0  0  0  0  0  0  0  0  0  0  0
   30.1830   33.4785   28.4655 H   0  0  0  0  0  0  0  0  0  0  0  0
   30.5563   36.0025   29.5808 H   0  0  0  0  0  0  0  0  0  0  0  0
   31.2033   34.4320   30.2076 H   0  0  0  0  0  0  0  0  0  0  0  0
   34.3739   34.7287   29.1621 H   0  0  0  0  0  0  0  0  0  0  0  0
   33.0567   33.8073   29.9940 H   0  0  0  0  0  0  0  0  0  0  0  0
   32.9976   32.5524   28.1163 H   0  0  0  0  0  0  0  0  0  0  0  0
   33.9019   33.8086   27.1604 H   0  0  0  0  0  0  0  0  0  0  0  0
   32.4358   39.0694   21.8282 H   0  0  0  0  0  0  0  0  0  0  0  0
   32.3330   38.3070   23.4782 H   0  0  0  0  0  0  0  0  0  0  0  0
   35.5805   37.5438   23.8810 H   0  0  0  0  0  0  0  0  0  0  0  0
   34.8748   36.9849   22.3266 H   0  0  0  0  0  0  0  0  0  0  0  0
   36.2046   38.1925   22.3266 H   0  0  0  0  0  0  0  0  0  0  0  0
   34.2917   38.7164   25.0534 H   0  0  0  0  0  0  0  0  0  0  0  0
   35.1798   40.1629   24.4655 H   0  0  0  0  0  0  0  0  0  0  0  0
   33.3836   40.1504   24.4655 H   0  0  0  0  0  0  0  0  0  0  0  0
   34.9634   40.7614   22.5126 H   0  0  0  0  0  0  0  0  0  0  0  0
   35.8779   35.9228   20.1086 H   0  0  0  0  0  0  0  0  0  0  0  0
   38.2154   36.0846   19.2548 H   0  0  0  0  0  0  0  0  0  0  0  0
   36.7814   35.5709   15.2096 H   0  0  0  0  0  0  0  0  0  0  0  0
  1 19  1  0
  1 12  1  0
  1  2  1  0
  2  3  2  0
  2  4  1  0
  4  5  2  0
  4 24  1  0
  5  6  1  0
  6 12  2  0
  6  7  1  0
  7  8  2  0
  8  9  1  0
  9 10  1  0
  9 11  2  0
 10 13  1  0
 11 12  1  0
 13 18  1  0
 13 14  1  0
 14 15  1  0
 15 16  1  0
 16 17  1  0
 17 18  1  0
 19 20  1  0
 20 22  1  0
 20 21  1  0
 20 23  1  0
 24 25  1  0
 25 26  2  0
 25 31  1  0
 26 27  1  0
 27 28  2  0
 28 29  1  0
 28 30  1  0
 30 31  2  0
 31 32  1  0
  5 33  1  0
  7 34  1  0
 10 35  1  0
 13 36  1  0
 14 37  1  0
 14 38  1  0
 15 39  1  0
 15 40  1  0
 17 41  1  0
 17 42  1  0
 18 43  1  0
 18 44  1  0
 19 45  1  0
 19 46  1  0
 21 47  1  0
 21 48  1  0
 21 49  1  0
 22 50  1  0
 22 51  1  0
 22 52  1  0
 23 53  1  0
 26 54  1  0
 27 55  1  0
 30 56  1  0
M  END
>  <s_m_entry_id>  (11) 
60

>  <MODEL>  (11) 
1

>  <REMARK>  (11) 
 VINA RESULT:    -8.511      0.000      0.000
 INTER + INTRA:         -11.221
 INTER:                 -10.858
 INTRA:                  -0.363
 UNBOUND:                 0.027
  Name = /scratch/kmzp800/tmpcwnn04hf/tmpnqtovj0u.pdb
  8 active torsions:
  status: ('A' for Active; 'I' for Inactive)
    1  A    between atoms: O1_1  and  C1_2
    2  A    between atoms: C1_2  and  C2_3
    3  A    between atoms: C1_2  and  C3_4
    4  A    between atoms: C1_2  and  C4_5
    5  A    between atoms: C4_5  and  N1_6
    6  A    between atoms: C6_9  and  O3_10
    7  A    between atoms: O3_10  and  C7_11
    8  A    between atoms: N3_24  and  C17_25
                            x       y       z     vdW  Elec       q    Type
                         _______ _______ _______ _____ _____    ______ ____

>  <TORSDO>  (11) 
F 6

>  <grid_id>  (11) 
p38-prepared

>  <grid_path>  (11) 
/projects/mai/users/kmzp800_harry/pmx_colab/docking_jobs/p38/vina_docking/input_files/p38_vina.pdbqt

>  <grid_filename>  (11) 
p38_vina.pdbqt

>  <docking_score>  (11) 
-8.511

>  <compound_name>  (11) 
lig_p38a_2r

>  <index_string>  (11) 
11:0:0

$$$$
lig_p38a_2i
     RDKit          3D

 48 51  0  0  1  0  0  0  0  0999 V2000
   33.5860   35.7500   19.8200 C   0  0  0  0  0  0  0  0  0  0  0  0
   33.5410   37.0190   20.3980 C   0  0  0  0  0  0  0  0  0  0  0  0
   33.2680   37.1480   21.7540 C   0  0  0  0  0  0  0  0  0  0  0  0
   33.2140   38.3990   22.3630 C   0  0  0  0  0  0  0  0  0  0  0  0
   32.9460   38.4900   23.6910 N   0  0  0  0  0  0  0  0  0  0  0  0
   32.7310   37.3760   24.4430 C   0  0  0  0  0  0  0  0  0  0  0  0
   32.4490   37.4840   25.8390 N   0  0  0  0  0  0  0  0  0  0  0  0
   32.7790   36.1470   23.8640 N   0  0  0  0  0  0  0  0  0  0  0  0
   33.0440   36.0010   22.5360 C   0  0  0  0  0  0  0  0  0  0  0  0
   33.0930   34.7600   21.9600 N   0  0  0  0  0  0  0  0  0  0  0  0
   32.8600   33.5730   22.7770 C   0  0  0  0  0  0  0  0  0  0  0  0
   33.3600   34.6170   20.6220 C   0  0  0  0  0  0  0  0  0  0  0  0
   33.4040   33.4670   20.1030 O   0  0  0  0  0  0  0  0  0  0  0  0
   32.4140   38.7600   26.5450 C   0  0  0  0  0  0  0  0  0  0  0  0
   31.3920   38.6850   27.6860 C   0  0  0  0  0  0  0  0  0  0  0  0
   31.9970   38.1200   28.9820 C   0  0  0  0  0  0  0  0  0  0  0  0
   33.2200   37.4760   28.7360 O   0  0  0  0  0  0  0  0  0  0  0  0
   34.1330   38.4970   28.4190 C   0  0  0  0  0  0  0  0  0  0  0  0
   33.8200   39.1210   27.0500 C   0  0  0  0  0  0  0  0  0  0  0  0
   33.9030   35.6250   18.3620 C   0  0  0  0  0  0  0  0  0  0  0  0
   38.1370   35.9600   17.7210 C   0  0  0  0  0  0  0  0  0  0  0  0
   37.6170   35.9970   19.0170 C   0  0  0  0  0  0  0  0  0  0  0  0
   36.2390   35.8810   19.2210 C   0  0  0  0  0  0  0  0  0  0  0  0
   35.3760   35.7250   18.1290 C   0  0  0  0  0  0  0  0  0  0  0  0
   35.9010   35.6920   16.8260 C   0  0  0  0  0  0  0  0  0  0  0  0
   35.0830   35.5470   15.7550 F   0  0  0  0  0  0  0  0  0  0  0  0
   37.2800   35.8080   16.6280 C   0  0  0  0  0  0  0  0  0  0  0  0
   33.7208   37.9131   19.7830 H   0  0  0  0  0  0  0  0  0  0  0  0
   33.3877   39.3096   21.7709 H   0  0  0  0  0  0  0  0  0  0  0  0
   32.2619   36.6222   26.3711 H   0  0  0  0  0  0  0  0  0  0  0  0
   32.9133   33.8444   23.8417 H   0  0  0  0  0  0  0  0  0  0  0  0
   31.8642   33.1630   22.5525 H   0  0  0  0  0  0  0  0  0  0  0  0
   33.6269   32.8170   22.5525 H   0  0  0  0  0  0  0  0  0  0  0  0
   32.0973   39.5608   25.8606 H   0  0  0  0  0  0  0  0  0  0  0  0
   31.0119   39.6976   27.8863 H   0  0  0  0  0  0  0  0  0  0  0  0
   30.5866   38.0061   27.3693 H   0  0  0  0  0  0  0  0  0  0  0  0
   32.1629   38.9457   29.6896 H   0  0  0  0  0  0  0  0  0  0  0  0
   31.2951   37.3837   29.4005 H   0  0  0  0  0  0  0  0  0  0  0  0
   34.0777   39.2793   29.1904 H   0  0  0  0  0  0  0  0  0  0  0  0
   35.1418   38.0604   28.3789 H   0  0  0  0  0  0  0  0  0  0  0  0
   34.5600   38.7601   26.3206 H   0  0  0  0  0  0  0  0  0  0  0  0
   33.8633   40.2142   27.1638 H   0  0  0  0  0  0  0  0  0  0  0  0
   33.5455   34.6507   17.9974 H   0  0  0  0  0  0  0  0  0  0  0  0
   33.4040   36.4426   17.8212 H   0  0  0  0  0  0  0  0  0  0  0  0
   39.2215   36.0506   17.5609 H   0  0  0  0  0  0  0  0  0  0  0  0
   38.2920   36.1174   19.8771 H   0  0  0  0  0  0  0  0  0  0  0  0
   35.8312   35.9123   20.2421 H   0  0  0  0  0  0  0  0  0  0  0  0
   37.6917   35.7795   15.6084 H   0  0  0  0  0  0  0  0  0  0  0  0
  1  2  2  0
  1 12  1  0
  1 20  1  0
  2  3  1  0
  3  4  2  0
  3  9  1  0
  4  5  1  0
  5  6  2  0
  6  7  1  0
  6  8  1  0
  7 14  1  0
  8  9  2  0
  9 10  1  0
 10 11  1  0
 10 12  1  0
 12 13  2  0
 14 19  1  0
 14 15  1  0
 15 16  1  0
 16 17  1  0
 17 18  1  0
 18 19  1  0
 20 24  1  0
 21 22  2  0
 21 27  1  0
 22 23  1  0
 23 24  2  0
 24 25  1  0
 25 26  1  0
 25 27  2  0
  2 28  1  0
  4 29  1  0
  7 30  1  0
 11 31  1  0
 11 32  1  0
 11 33  1  0
 14 34  1  0
 15 35  1  0
 15 36  1  0
 16 37  1  0
 16 38  1  0
 18 39  1  0
 18 40  1  0
 19 41  1  0
 19 42  1  0
 20 43  1  0
 20 44  1  0
 21 45  1  0
 22 46  1  0
 23 47  1  0
 27 48  1  0
M  END
>  <s_m_entry_id>  (12) 
61

>  <MODEL>  (12) 
1

>  <REMARK>  (12) 
 VINA RESULT:   -18.922      0.000      0.000
 INTER + INTRA:         -10.255
 INTER:                  -9.883
 INTRA:                  -0.372
 UNBOUND:                11.986
  Name = /scratch/kmzp800/tmp5e_vslb5/tmpk2eri_dr.pdb
  4 active torsions:
  status: ('A' for Active; 'I' for Inactive)
    1  A    between atoms: C4_4  and  C5_5
    2  A    between atoms: C5_5  and  C6_6
    3  A    between atoms: N2_12  and  C11_13
    4  A    between atoms: N4_21  and  C17_22
                            x       y       z     vdW  Elec       q    Type
                         _______ _______ _______ _____ _____    ______ ____

>  <TORSDO>  (12) 
F 3

>  <grid_id>  (12) 
p38-prepared

>  <grid_path>  (12) 
/projects/mai/users/kmzp800_harry/pmx_colab/docking_jobs/p38/vina_docking/input_files/p38_vina.pdbqt

>  <grid_filename>  (12) 
p38_vina.pdbqt

>  <docking_score>  (12) 
-18.922

>  <compound_name>  (12) 
lig_p38a_2i

>  <index_string>  (12) 
12:0:0

$$$$
lig_p38a_2q
     RDKit          3D

 59 63  0  0  1  0  0  0  0  0999 V2000
   33.7950   35.9110   20.1670 C   0  0  0  0  0  0  0  0  0  0  0  0
   34.0400   37.2760   20.2750 C   0  0  0  0  0  0  0  0  0  0  0  0
   33.7200   37.9470   21.4470 C   0  0  0  0  0  0  0  0  0  0  0  0
   33.9630   39.3110   21.5850 C   0  0  0  0  0  0  0  0  0  0  0  0
   33.6430   39.9390   22.7470 N   0  0  0  0  0  0  0  0  0  0  0  0
   33.0880   39.2570   23.7830 C   0  0  0  0  0  0  0  0  0  0  0  0
   32.7630   39.9490   24.9910 N   0  0  0  0  0  0  0  0  0  0  0  0
   32.8430   37.9230   23.6640 N   0  0  0  0  0  0  0  0  0  0  0  0
   33.1450   37.2460   22.5210 C   0  0  0  0  0  0  0  0  0  0  0  0
   32.8840   35.9050   22.4080 N   0  0  0  0  0  0  0  0  0  0  0  0
   33.1840   35.2340   21.2450 C   0  0  0  0  0  0  0  0  0  0  0  0
   32.8970   34.0100   21.1260 O   0  0  0  0  0  0  0  0  0  0  0  0
   32.2610   35.2170   23.5480 C   0  0  0  0  0  0  0  0  0  0  0  0
   30.7670   34.9290   23.2980 C   0  0  0  0  0  0  0  0  0  0  0  0
   30.4640   33.4640   23.0010 C   0  0  0  0  0  0  0  0  0  0  0  0
   30.9650   32.4660   24.3890 S   0  0  0  0  0  6  0  0  0  0  0  0
   29.8570   32.4030   25.4020 O   0  0  0  0  0  0  0  0  0  0  0  0
   31.3010   31.0790   23.9200 O   0  0  0  0  0  0  0  0  0  0  0  0
   32.4000   33.2280   25.1130 C   0  0  0  0  0  0  0  0  0  0  0  0
   33.1180   34.0400   24.0460 C   0  0  0  0  0  0  0  0  0  0  0  0
   32.1510   39.2890   26.1340 C   0  0  0  0  0  0  0  0  0  0  0  0
   31.0430   38.3460   25.6580 C   0  0  0  0  0  0  0  0  0  0  0  0
   30.6610   37.3270   26.7430 C   0  0  0  0  0  0  0  0  0  0  0  0
   31.1840   37.6920   27.9970 O   0  0  0  0  0  0  0  0  0  0  0  0
   32.5760   37.5160   27.9030 C   0  0  0  0  0  0  0  0  0  0  0  0
   33.2120   38.5490   26.9590 C   0  0  0  0  0  0  0  0  0  0  0  0
   34.1290   35.2680   18.9660 O   0  0  0  0  0  0  0  0  0  0  0  0
   36.2560   35.8660   16.0060 C   0  0  0  0  0  0  0  0  0  0  0  0
   35.1450   35.6050   16.8110 C   0  0  0  0  0  0  0  0  0  0  0  0
   35.2770   35.5260   18.2030 C   0  0  0  0  0  0  0  0  0  0  0  0
   36.5420   35.7460   18.7880 C   0  0  0  0  0  0  0  0  0  0  0  0
   36.6990   35.7480   20.1350 F   0  0  0  0  0  0  0  0  0  0  0  0
   37.6500   36.0070   17.9780 C   0  0  0  0  0  0  0  0  0  0  0  0
   37.5100   36.0610   16.5890 C   0  0  0  0  0  0  0  0  0  0  0  0
   38.5880   36.3130   15.8090 F   0  0  0  0  0  0  0  0  0  0  0  0
   34.4871   37.8233   19.4320 H   0  0  0  0  0  0  0  0  0  0  0  0
   34.4123   39.8782   20.7566 H   0  0  0  0  0  0  0  0  0  0  0  0
   32.9706   40.9559   25.0547 H   0  0  0  0  0  0  0  0  0  0  0  0
   32.2444   35.8976   24.4120 H   0  0  0  0  0  0  0  0  0  0  0  0
   30.2020   35.2253   24.1941 H   0  0  0  0  0  0  0  0  0  0  0  0
   30.4746   35.5038   22.4069 H   0  0  0  0  0  0  0  0  0  0  0  0
   29.3846   33.3395   22.8295 H   0  0  0  0  0  0  0  0  0  0  0  0
   31.0147   33.1486   22.1025 H   0  0  0  0  0  0  0  0  0  0  0  0
   32.0912   33.8901   25.9354 H   0  0  0  0  0  0  0  0  0  0  0  0
   33.0738   32.4535   25.5082 H   0  0  0  0  0  0  0  0  0  0  0  0
   33.3492   33.3830   23.1946 H   0  0  0  0  0  0  0  0  0  0  0  0
   34.0365   34.4508   24.4904 H   0  0  0  0  0  0  0  0  0  0  0  0
   31.6952   40.0455   26.7898 H   0  0  0  0  0  0  0  0  0  0  0  0
   30.1549   38.9411   25.3989 H   0  0  0  0  0  0  0  0  0  0  0  0
   31.4150   37.7929   24.7829 H   0  0  0  0  0  0  0  0  0  0  0  0
   29.5646   37.2741   26.8142 H   0  0  0  0  0  0  0  0  0  0  0  0
   31.0817   36.3498   26.4636 H   0  0  0  0  0  0  0  0  0  0  0  0
   33.0186   37.6263   28.9040 H   0  0  0  0  0  0  0  0  0  0  0  0
   32.7703   36.5122   27.4974 H   0  0  0  0  0  0  0  0  0  0  0  0
   33.8994   38.0310   26.2741 H   0  0  0  0  0  0  0  0  0  0  0  0
   33.7497   39.2885   27.5705 H   0  0  0  0  0  0  0  0  0  0  0  0
   36.1434   35.9180   14.9130 H   0  0  0  0  0  0  0  0  0  0  0  0
   34.1579   35.4602   16.3478 H   0  0  0  0  0  0  0  0  0  0  0  0
   38.6367   36.1707   18.4358 H   0  0  0  0  0  0  0  0  0  0  0  0
  1  2  2  0
  1 11  1  0
  1 27  1  0
  2  3  1  0
  3  4  2  0
  3  9  1  0
  4  5  1  0
  5  6  2  0
  6  7  1  0
  6  8  1  0
  7 21  1  0
  8  9  2  0
  9 10  1  0
 10 13  1  0
 10 11  1  0
 11 12  2  0
 13 20  1  0
 13 14  1  0
 14 15  1  0
 15 16  1  0
 16 19  1  0
 16 17  2  0
 16 18  2  0
 19 20  1  0
 21 26  1  0
 21 22  1  0
 22 23  1  0
 23 24  1  0
 24 25  1  0
 25 26  1  0
 27 30  1  0
 28 34  2  0
 28 29  1  0
 29 30  2  0
 30 31  1  0
 31 32  1  0
 31 33  2  0
 33 34  1  0
 34 35  1  0
  2 36  1  0
  4 37  1  0
  7 38  1  0
 13 39  1  0
 14 40  1  0
 14 41  1  0
 15 42  1  0
 15 43  1  0
 19 44  1  0
 19 45  1  0
 20 46  1  0
 20 47  1  0
 21 48  1  0
 22 49  1  0
 22 50  1  0
 23 51  1  0
 23 52  1  0
 25 53  1  0
 25 54  1  0
 26 55  1  0
 26 56  1  0
 28 57  1  0
 29 58  1  0
 33 59  1  0
M  END
>  <s_m_entry_id>  (13) 
62

>  <MODEL>  (13) 
3

>  <REMARK>  (13) 
 VINA RESULT:   -15.283      0.843      1.198
 INTER + INTRA:         -11.216
 INTER:                 -11.568
 INTRA:                   0.352
 UNBOUND:                 7.641
  Name = /scratch/kmzp800/tmpr8ip7kwy/tmp6p3k8mds.pdb
  4 active torsions:
  status: ('A' for Active; 'I' for Inactive)
    1  A    between atoms: C3_3  and  O1_4
    2  A    between atoms: O1_4  and  C4_5
    3  A    between atoms: N2_11  and  C9_12
    4  A    between atoms: N4_20  and  C15_21
                            x       y       z     vdW  Elec       q    Type
                         _______ _______ _______ _____ _____    ______ ____

>  <TORSDO>  (13) 
F 4

>  <grid_id>  (13) 
p38-prepared

>  <grid_path>  (13) 
/projects/mai/users/kmzp800_harry/pmx_colab/docking_jobs/p38/vina_docking/input_files/p38_vina.pdbqt

>  <grid_filename>  (13) 
p38_vina.pdbqt

>  <docking_score>  (13) 
-15.283

>  <compound_name>  (13) 
lig_p38a_2q

>  <index_string>  (13) 
13:0:2

$$$$
lig_p38a_2h
     RDKit          3D

 46 49  0  0  1  0  0  0  0  0999 V2000
   33.0080   35.7600   21.1210 C   0  0  0  0  0  0  0  0  0  0  0  0
   33.4410   36.8950   21.8050 C   0  0  0  0  0  0  0  0  0  0  0  0
   33.5150   36.8750   23.1920 C   0  0  0  0  0  0  0  0  0  0  0  0
   33.9480   37.9880   23.9070 C   0  0  0  0  0  0  0  0  0  0  0  0
   34.0100   37.9350   25.2630 N   0  0  0  0  0  0  0  0  0  0  0  0
   33.6560   36.8070   25.9410 C   0  0  0  0  0  0  0  0  0  0  0  0
   33.7250   36.7610   27.3710 N   0  0  0  0  0  0  0  0  0  0  0  0
   33.2310   35.7120   25.2560 N   0  0  0  0  0  0  0  0  0  0  0  0
   33.1510   35.7140   23.8960 C   0  0  0  0  0  0  0  0  0  0  0  0
   32.7220   34.6060   23.2150 N   0  0  0  0  0  0  0  0  0  0  0  0
   32.3430   33.4040   23.9510 C   0  0  0  0  0  0  0  0  0  0  0  0
   32.6430   34.6130   21.8460 C   0  0  0  0  0  0  0  0  0  0  0  0
   32.2430   33.5870   21.2270 O   0  0  0  0  0  0  0  0  0  0  0  0
   34.1620   37.8650   28.2190 C   0  0  0  0  0  0  0  0  0  0  0  0
   33.1010   38.9650   28.2800 C   0  0  0  0  0  0  0  0  0  0  0  0
   33.6800   40.1740   29.0140 C   0  0  0  0  0  0  0  0  0  0  0  0
   34.8230   40.6420   28.3410 O   0  0  0  0  0  0  0  0  0  0  0  0
   35.8320   39.6830   28.5440 C   0  0  0  0  0  0  0  0  0  0  0  0
   35.5120   38.4150   27.7520 C   0  0  0  0  0  0  0  0  0  0  0  0
   32.9220   35.8020   19.3290 S   0  0  0  0  0  0  0  0  0  0  0  0
   37.4890   36.0040   18.8950 C   0  0  0  0  0  0  0  0  0  0  0  0
   36.8910   36.1850   20.1450 C   0  0  0  0  0  0  0  0  0  0  0  0
   35.5000   36.1220   20.2710 C   0  0  0  0  0  0  0  0  0  0  0  0
   34.7030   35.8790   19.1460 C   0  0  0  0  0  0  0  0  0  0  0  0
   35.3050   35.6920   17.8930 C   0  0  0  0  0  0  0  0  0  0  0  0
   34.5490   35.4500   16.7940 F   0  0  0  0  0  0  0  0  0  0  0  0
   36.6960   35.7560   17.7700 C   0  0  0  0  0  0  0  0  0  0  0  0
   33.7226   37.8016   21.2493 H   0  0  0  0  0  0  0  0  0  0  0  0
   34.2387   38.9066   23.3763 H   0  0  0  0  0  0  0  0  0  0  0  0
   33.4457   35.8846   27.8345 H   0  0  0  0  0  0  0  0  0  0  0  0
   32.4051   33.6008   25.0315 H   0  0  0  0  0  0  0  0  0  0  0  0
   31.3126   33.1227   23.6881 H   0  0  0  0  0  0  0  0  0  0  0  0
   33.0257   32.5825   23.6881 H   0  0  0  0  0  0  0  0  0  0  0  0
   34.2961   37.4770   29.2395 H   0  0  0  0  0  0  0  0  0  0  0  0
   32.8127   39.2565   27.2592 H   0  0  0  0  0  0  0  0  0  0  0  0
   32.2131   38.5959   28.8142 H   0  0  0  0  0  0  0  0  0  0  0  0
   32.9256   40.9737   29.0507 H   0  0  0  0  0  0  0  0  0  0  0  0
   33.9583   39.8773   30.0360 H   0  0  0  0  0  0  0  0  0  0  0  0
   36.7960   40.0907   28.2057 H   0  0  0  0  0  0  0  0  0  0  0  0
   35.8874   39.4368   29.6147 H   0  0  0  0  0  0  0  0  0  0  0  0
   36.2965   37.6637   27.9254 H   0  0  0  0  0  0  0  0  0  0  0  0
   35.4676   38.6482   26.6779 H   0  0  0  0  0  0  0  0  0  0  0  0
   38.5833   36.0566   18.7959 H   0  0  0  0  0  0  0  0  0  0  0  0
   37.5150   36.3771   21.0303 H   0  0  0  0  0  0  0  0  0  0  0  0
   35.0310   36.2636   21.2559 H   0  0  0  0  0  0  0  0  0  0  0  0
   37.1676   35.6111   16.7868 H   0  0  0  0  0  0  0  0  0  0  0  0
  1  2  2  0
  1 12  1  0
  1 20  1  0
  2  3  1  0
  3  9  2  0
  3  4  1  0
  4  5  2  0
  5  6  1  0
  6  7  1  0
  6  8  2  0
  7 14  1  0
  8  9  1  0
  9 10  1  0
 10 11  1  0
 10 12  1  0
 12 13  2  0
 14 15  1  0
 14 19  1  0
 15 16  1  0
 16 17  1  0
 17 18  1  0
 18 19  1  0
 20 24  1  0
 21 22  2  0
 21 27  1  0
 22 23  1  0
 23 24  2  0
 24 25  1  0
 25 26  1  0
 25 27  2  0
  2 28  1  0
  4 29  1  0
  7 30  1  0
 11 31  1  0
 11 32  1  0
 11 33  1  0
 14 34  1  0
 15 35  1  0
 15 36  1  0
 16 37  1  0
 16 38  1  0
 18 39  1  0
 18 40  1  0
 19 41  1  0
 19 42  1  0
 21 43  1  0
 22 44  1  0
 23 45  1  0
 27 46  1  0
M  END
>  <s_m_entry_id>  (14) 
63

>  <MODEL>  (14) 
31

>  <REMARK>  (14) 
 VINA RESULT:   -13.009      3.689      8.258
 INTER + INTRA:          -7.524
 INTER:                  -8.400
 INTRA:                   0.875
 UNBOUND:                 7.767
  Name = /scratch/kmzp800/tmpvuocj30j/tmp_pogqh0p.pdb
  4 active torsions:
  status: ('A' for Active; 'I' for Inactive)
    1  A    between atoms: C4_4  and  S1_5
    2  A    between atoms: S1_5  and  C5_6
    3  A    between atoms: N2_12  and  C10_13
    4  A    between atoms: N4_21  and  C16_22
                            x       y       z     vdW  Elec       q    Type
                         _______ _______ _______ _____ _____    ______ ____

>  <TORSDO>  (14) 
F 3

>  <grid_id>  (14) 
p38-prepared

>  <grid_path>  (14) 
/projects/mai/users/kmzp800_harry/pmx_colab/docking_jobs/p38/vina_docking/input_files/p38_vina.pdbqt

>  <grid_filename>  (14) 
p38_vina.pdbqt

>  <docking_score>  (14) 
-13.009

>  <compound_name>  (14) 
lig_p38a_2h

>  <index_string>  (14) 
14:0:30

$$$$
lig_p38a_2e
     RDKit          3D

 46 49  0  0  1  0  0  0  0  0999 V2000
   34.0220   36.2060   20.3480 C   0  0  0  0  0  0  0  0  0  0  0  0
   34.1150   37.5820   20.5460 C   0  0  0  0  0  0  0  0  0  0  0  0
   34.1030   38.0990   21.8370 C   0  0  0  0  0  0  0  0  0  0  0  0
   34.1820   39.4690   22.0660 C   0  0  0  0  0  0  0  0  0  0  0  0
   34.1630   39.9410   23.3400 N   0  0  0  0  0  0  0  0  0  0  0  0
   34.0650   39.0970   24.4000 C   0  0  0  0  0  0  0  0  0  0  0  0
   34.0490   39.6310   25.7260 N   0  0  0  0  0  0  0  0  0  0  0  0
   33.9890   37.7530   24.1940 N   0  0  0  0  0  0  0  0  0  0  0  0
   34.0040   37.2290   22.9370 C   0  0  0  0  0  0  0  0  0  0  0  0
   33.9350   35.8770   22.7370 N   0  0  0  0  0  0  0  0  0  0  0  0
   33.8500   34.9800   23.8860 C   0  0  0  0  0  0  0  0  0  0  0  0
   33.9560   35.3530   21.4700 C   0  0  0  0  0  0  0  0  0  0  0  0
   33.9440   34.1020   21.3040 O   0  0  0  0  0  0  0  0  0  0  0  0
   33.9210   38.7950   26.9100 C   0  0  0  0  0  0  0  0  0  0  0  0
   35.3050   38.5110   27.4980 C   0  0  0  0  0  0  0  0  0  0  0  0
   35.2160   38.0140   28.9480 C   0  0  0  0  0  0  0  0  0  0  0  0
   33.9000   37.6490   29.2860 O   0  0  0  0  0  0  0  0  0  0  0  0
   33.1650   38.8470   29.3360 C   0  0  0  0  0  0  0  0  0  0  0  0
   32.9930   39.4600   27.9360 C   0  0  0  0  0  0  0  0  0  0  0  0
   34.0420   35.7180   19.0340 O   0  0  0  0  0  0  0  0  0  0  0  0
   37.5670   35.9420   17.9470 C   0  0  0  0  0  0  0  0  0  0  0  0
   36.4300   35.9040   18.7580 C   0  0  0  0  0  0  0  0  0  0  0  0
   35.1620   35.7310   18.1920 C   0  0  0  0  0  0  0  0  0  0  0  0
   35.0420   35.6100   16.7970 C   0  0  0  0  0  0  0  0  0  0  0  0
   36.1790   35.6480   15.9850 C   0  0  0  0  0  0  0  0  0  0  0  0
   37.4430   35.8120   16.5600 C   0  0  0  0  0  0  0  0  0  0  0  0
   38.5450   35.8480   15.7750 F   0  0  0  0  0  0  0  0  0  0  0  0
   34.1978   38.2584   19.6825 H   0  0  0  0  0  0  0  0  0  0  0  0
   34.2595   40.1670   21.2194 H   0  0  0  0  0  0  0  0  0  0  0  0
   34.1315   40.6504   25.8484 H   0  0  0  0  0  0  0  0  0  0  0  0
   33.9056   35.5672   24.8145 H   0  0  0  0  0  0  0  0  0  0  0  0
   32.8960   34.4332   23.8546 H   0  0  0  0  0  0  0  0  0  0  0  0
   34.6843   34.2638   23.8546 H   0  0  0  0  0  0  0  0  0  0  0  0
   33.4672   37.8328   26.6304 H   0  0  0  0  0  0  0  0  0  0  0  0
   35.8005   37.7418   26.8875 H   0  0  0  0  0  0  0  0  0  0  0  0
   35.8787   39.4495   27.4923 H   0  0  0  0  0  0  0  0  0  0  0  0
   35.8719   37.1390   29.0672 H   0  0  0  0  0  0  0  0  0  0  0  0
   35.5303   38.8312   29.6138 H   0  0  0  0  0  0  0  0  0  0  0  0
   32.1715   38.6397   29.7602 H   0  0  0  0  0  0  0  0  0  0  0  0
   33.7155   39.5644   29.9623 H   0  0  0  0  0  0  0  0  0  0  0  0
   33.2266   40.5338   27.9853 H   0  0  0  0  0  0  0  0  0  0  0  0
   31.9533   39.2984   27.6151 H   0  0  0  0  0  0  0  0  0  0  0  0
   38.5607   36.0743   18.3998 H   0  0  0  0  0  0  0  0  0  0  0  0
   36.5322   36.0107   19.8480 H   0  0  0  0  0  0  0  0  0  0  0  0
   34.0484   35.4848   16.3419 H   0  0  0  0  0  0  0  0  0  0  0  0
   36.0795   35.5489   14.8940 H   0  0  0  0  0  0  0  0  0  0  0  0
  1  2  2  0
  1 12  1  0
  1 20  1  0
  2  3  1  0
  3  4  2  0
  3  9  1  0
  4  5  1  0
  5  6  2  0
  6  7  1  0
  6  8  1  0
  7 14  1  0
  8  9  2  0
  9 10  1  0
 10 11  1  0
 10 12  1  0
 12 13  2  0
 14 15  1  0
 14 19  1  0
 15 16  1  0
 16 17  1  0
 17 18  1  0
 18 19  1  0
 20 23  1  0
 21 22  2  0
 21 26  1  0
 22 23  1  0
 23 24  2  0
 24 25  1  0
 25 26  2  0
 26 27  1  0
  2 28  1  0
  4 29  1  0
  7 30  1  0
 11 31  1  0
 11 32  1  0
 11 33  1  0
 14 34  1  0
 15 35  1  0
 15 36  1  0
 16 37  1  0
 16 38  1  0
 18 39  1  0
 18 40  1  0
 19 41  1  0
 19 42  1  0
 21 43  1  0
 22 44  1  0
 24 45  1  0
 25 46  1  0
M  END
>  <s_m_entry_id>  (15) 
64

>  <MODEL>  (15) 
2

>  <REMARK>  (15) 
 VINA RESULT:    -9.493      1.220      1.702
 INTER + INTRA:         -10.300
 INTER:                  -9.744
 INTRA:                  -0.556
 UNBOUND:                 0.858
  Name = /scratch/kmzp800/tmpa2xyrw8c/tmpvlnjp_p9.pdb
  4 active torsions:
  status: ('A' for Active; 'I' for Inactive)
    1  A    between atoms: C3_3  and  O1_4
    2  A    between atoms: O1_4  and  C4_5
    3  A    between atoms: N2_11  and  C9_12
    4  A    between atoms: N4_20  and  C15_21
                            x       y       z     vdW  Elec       q    Type
                         _______ _______ _______ _____ _____    ______ ____

>  <TORSDO>  (15) 
F 3

>  <grid_id>  (15) 
p38-prepared

>  <grid_path>  (15) 
/projects/mai/users/kmzp800_harry/pmx_colab/docking_jobs/p38/vina_docking/input_files/p38_vina.pdbqt

>  <grid_filename>  (15) 
p38_vina.pdbqt

>  <docking_score>  (15) 
-9.493

>  <compound_name>  (15) 
lig_p38a_2e

>  <index_string>  (15) 
15:0:1

$$$$
lig_p38a_3fmk
     RDKit          3D

 46 49  0  0  1  0  0  0  0  0999 V2000
   34.1350   39.6510   25.7600 N   0  0  0  0  0  0  0  0  0  0  0  0
   34.1420   39.0950   24.4440 C   0  0  0  0  0  0  0  0  0  0  0  0
   33.9520   39.9080   23.3720 N   0  0  0  0  0  0  0  0  0  0  0  0
   33.9500   39.4120   22.1080 C   0  0  0  0  0  0  0  0  0  0  0  0
   34.1440   38.0500   21.8990 C   0  0  0  0  0  0  0  0  0  0  0  0
   34.1530   37.5120   20.6180 C   0  0  0  0  0  0  0  0  0  0  0  0
   34.3600   36.1450   20.4390 C   0  0  0  0  0  0  0  0  0  0  0  0
   34.5220   35.3210   21.5750 C   0  0  0  0  0  0  0  0  0  0  0  0
   34.6450   34.0730   21.4290 O   0  0  0  0  0  0  0  0  0  0  0  0
   34.5200   35.8680   22.8320 N   0  0  0  0  0  0  0  0  0  0  0  0
   34.7040   35.0030   23.9930 C   0  0  0  0  0  0  0  0  0  0  0  0
   34.3370   37.2130   23.0120 C   0  0  0  0  0  0  0  0  0  0  0  0
   34.3300   37.7590   24.2590 N   0  0  0  0  0  0  0  0  0  0  0  0
   34.3570   38.8520   26.9550 C   0  0  0  0  0  0  0  0  0  0  0  0
   35.8330   38.8720   27.3210 C   0  0  0  0  0  0  0  0  0  0  0  0
   33.5330   39.4210   28.0990 C   0  0  0  0  0  0  0  0  0  0  0  0
   30.7040   37.5080   28.9690 C   0  0  0  0  0  0  0  0  0  0  0  0
   30.3810   37.8480   27.7010 N   0  0  0  0  0  0  0  0  0  0  0  0
   31.3820   38.5900   27.2590 N   0  0  0  0  0  0  0  0  0  0  0  0
   32.2750   38.7030   28.2240 N   0  0  0  0  0  0  0  0  0  0  0  0
   31.8970   38.0420   29.3010 N   0  0  0  0  0  0  0  0  0  0  0  0
   34.3570   35.6370   19.1320 O   0  0  0  0  0  0  0  0  0  0  0  0
   35.4210   35.7280   18.2250 C   0  0  0  0  0  0  0  0  0  0  0  0
   35.1340   35.6580   16.8560 C   0  0  0  0  0  0  0  0  0  0  0  0
   36.1580   35.7540   15.9120 C   0  0  0  0  0  0  0  0  0  0  0  0
   37.4800   35.9290   16.3280 C   0  0  0  0  0  0  0  0  0  0  0  0
   38.4730   36.0210   15.4120 F   0  0  0  0  0  0  0  0  0  0  0  0
   37.7750   36.0220   17.6900 C   0  0  0  0  0  0  0  0  0  0  0  0
   36.7540   35.9270   18.6410 C   0  0  0  0  0  0  0  0  0  0  0  0
   37.0650   36.0700   19.9530 F   0  0  0  0  0  0  0  0  0  0  0  0
   33.9654   40.6613   25.8672 H   0  0  0  0  0  0  0  0  0  0  0  0
   33.7955   40.0849   21.2517 H   0  0  0  0  0  0  0  0  0  0  0  0
   33.9970   38.1640   19.7459 H   0  0  0  0  0  0  0  0  0  0  0  0
   34.5786   35.5926   24.9131 H   0  0  0  0  0  0  0  0  0  0  0  0
   33.9576   34.1953   23.9705 H   0  0  0  0  0  0  0  0  0  0  0  0
   35.7145   34.5691   23.9705 H   0  0  0  0  0  0  0  0  0  0  0  0
   34.0509   37.8127   26.7647 H   0  0  0  0  0  0  0  0  0  0  0  0
   35.9393   38.8734   28.4159 H   0  0  0  0  0  0  0  0  0  0  0  0
   36.3258   37.9805   26.9059 H   0  0  0  0  0  0  0  0  0  0  0  0
   36.3015   39.7766   26.9059 H   0  0  0  0  0  0  0  0  0  0  0  0
   34.0999   39.3248   29.0368 H   0  0  0  0  0  0  0  0  0  0  0  0
   33.3201   40.4803   27.8928 H   0  0  0  0  0  0  0  0  0  0  0  0
   30.0845   36.8868   29.6326 H   0  0  0  0  0  0  0  0  0  0  0  0
   34.0942   35.5264   16.5221 H   0  0  0  0  0  0  0  0  0  0  0  0
   35.9235   35.6918   14.8391 H   0  0  0  0  0  0  0  0  0  0  0  0
   38.8150   36.1706   18.0161 H   0  0  0  0  0  0  0  0  0  0  0  0
  1 14  1  0
  1  2  1  0
  2  3  2  0
  2 13  1  0
  3  4  1  0
  4  5  2  0
  5 12  1  0
  5  6  1  0
  6  7  2  0
  7  8  1  0
  7 22  1  0
  8 10  1  0
  8  9  2  0
 10 12  1  0
 10 11  1  0
 12 13  2  0
 14 15  1  0
 14 16  1  0
 16 20  1  0
 17 21  2  0
 17 18  1  0
 18 19  2  0
 19 20  1  0
 20 21  1  0
 22 23  1  0
 23 29  1  0
 23 24  2  0
 24 25  1  0
 25 26  2  0
 26 28  1  0
 26 27  1  0
 28 29  2  0
 29 30  1  0
  1 31  1  0
  4 32  1  0
  6 33  1  0
 11 34  1  0
 11 35  1  0
 11 36  1  0
 14 37  1  0
 15 38  1  0
 15 39  1  0
 15 40  1  0
 16 41  1  0
 16 42  1  0
 17 43  1  0
 24 44  1  0
 25 45  1  0
 28 46  1  0
M  END
>  <s_m_entry_id>  (16) 
65

>  <MODEL>  (16) 
3

>  <REMARK>  (16) 
 VINA RESULT:    -8.543      1.189      1.540
 INTER + INTRA:         -11.682
 INTER:                 -10.915
 INTRA:                  -0.766
 UNBOUND:                -0.641
  Name = /scratch/kmzp800/tmpddbh0uen/tmpz9atdpuj.pdb
  7 active torsions:
  status: ('A' for Active; 'I' for Inactive)
    1  A    between atoms: N3_4  and  C2_5
    2  A    between atoms: C2_5  and  C3_6
    3  A    between atoms: C3_6  and  N4_7
    4  A    between atoms: C3_6  and  C18_29
    5  A    between atoms: C8_13  and  O1_14
    6  A    between atoms: O1_14  and  C9_15
    7  A    between atoms: N6_25  and  C16_26
                            x       y       z     vdW  Elec       q    Type
                         _______ _______ _______ _____ _____    ______ ____

>  <TORSDO>  (16) 
F 5

>  <grid_id>  (16) 
p38-prepared

>  <grid_path>  (16) 
/projects/mai/users/kmzp800_harry/pmx_colab/docking_jobs/p38/vina_docking/input_files/p38_vina.pdbqt

>  <grid_filename>  (16) 
p38_vina.pdbqt

>  <docking_score>  (16) 
-8.543

>  <compound_name>  (16) 
lig_p38a_3fmk

>  <index_string>  (16) 
16:0:2

$$$$
lig_p38a_2bb
     RDKit          3D

 44 46  0  0  1  0  0  0  0  0999 V2000
   34.2560   35.4770   19.9820 C   0  0  0  0  0  0  0  0  0  0  0  0
   34.7790   36.6390   20.5470 C   0  0  0  0  0  0  0  0  0  0  0  0
   34.7600   36.8090   21.9250 C   0  0  0  0  0  0  0  0  0  0  0  0
   35.2650   37.9630   22.5170 C   0  0  0  0  0  0  0  0  0  0  0  0
   35.2280   38.1010   23.8670 N   0  0  0  0  0  0  0  0  0  0  0  0
   34.7020   37.1250   24.6590 C   0  0  0  0  0  0  0  0  0  0  0  0
   34.6690   37.2790   26.0800 N   0  0  0  0  0  0  0  0  0  0  0  0
   34.2080   35.9900   24.0980 N   0  0  0  0  0  0  0  0  0  0  0  0
   34.2210   35.8040   22.7480 C   0  0  0  0  0  0  0  0  0  0  0  0
   33.7290   34.6550   22.1890 N   0  0  0  0  0  0  0  0  0  0  0  0
   33.1850   33.6080   23.0510 C   0  0  0  0  0  0  0  0  0  0  0  0
   33.7490   34.4690   20.8320 C   0  0  0  0  0  0  0  0  0  0  0  0
   33.3330   33.3850   20.3370 O   0  0  0  0  0  0  0  0  0  0  0  0
   34.2970   35.3380   18.5870 O   0  0  0  0  0  0  0  0  0  0  0  0
   36.2550   36.1380   15.5600 C   0  0  0  0  0  0  0  0  0  0  0  0
   35.1860   35.8520   16.4120 C   0  0  0  0  0  0  0  0  0  0  0  0
   35.4020   35.6310   17.7770 C   0  0  0  0  0  0  0  0  0  0  0  0
   36.7200   35.6690   18.2800 C   0  0  0  0  0  0  0  0  0  0  0  0
   36.9820   35.3920   19.5810 F   0  0  0  0  0  0  0  0  0  0  0  0
   37.7870   35.9540   17.4220 C   0  0  0  0  0  0  0  0  0  0  0  0
   37.5560   36.1960   16.0670 C   0  0  0  0  0  0  0  0  0  0  0  0
   38.5920   36.4740   15.2410 F   0  0  0  0  0  0  0  0  0  0  0  0
   35.1510   38.4760   26.7530 C   0  0  0  0  0  0  0  0  0  0  0  0
   33.9830   39.3770   27.1100 C   0  0  0  0  0  0  0  0  0  0  0  0
   33.9760   39.7070   28.8590 S   0  0  0  0  0  6  0  0  0  0  0  0
   32.5740   39.6120   29.3890 O   0  0  0  0  0  0  0  0  0  0  0  0
   34.5080   41.0910   29.1040 O   0  0  0  0  0  0  0  0  0  0  0  0
   35.0080   38.5280   29.7000 C   0  0  0  0  0  0  0  0  0  0  0  0
   35.2064   37.4207   19.9018 H   0  0  0  0  0  0  0  0  0  0  0  0
   35.6930   38.7611   21.8926 H   0  0  0  0  0  0  0  0  0  0  0  0
   34.2883   36.5110   26.6511 H   0  0  0  0  0  0  0  0  0  0  0  0
   33.3306   33.8882   24.1047 H   0  0  0  0  0  0  0  0  0  0  0  0
   32.1105   33.4879   22.8486 H   0  0  0  0  0  0  0  0  0  0  0  0
   33.7044   32.6597   22.8486 H   0  0  0  0  0  0  0  0  0  0  0  0
   36.0730   36.3176   14.4901 H   0  0  0  0  0  0  0  0  0  0  0  0
   34.1648   35.8000   16.0065 H   0  0  0  0  0  0  0  0  0  0  0  0
   38.8131   35.9876   17.8169 H   0  0  0  0  0  0  0  0  0  0  0  0
   35.6830   38.1881   27.6717 H   0  0  0  0  0  0  0  0  0  0  0  0
   35.8329   39.0180   26.0812 H   0  0  0  0  0  0  0  0  0  0  0  0
   34.0747   40.3259   26.5612 H   0  0  0  0  0  0  0  0  0  0  0  0
   33.0439   38.8744   26.8351 H   0  0  0  0  0  0  0  0  0  0  0  0
   34.8977   38.6540   30.7872 H   0  0  0  0  0  0  0  0  0  0  0  0
   34.7065   37.5088   29.4165 H   0  0  0  0  0  0  0  0  0  0  0  0
   36.0581   38.6919   29.4165 H   0  0  0  0  0  0  0  0  0  0  0  0
  1  2  2  0
  1 12  1  0
  1 14  1  0
  2  3  1  0
  3  4  2  0
  3  9  1  0
  4  5  1  0
  5  6  2  0
  6  7  1  0
  6  8  1  0
  7 23  1  0
  8  9  2  0
  9 10  1  0
 10 11  1  0
 10 12  1  0
 12 13  2  0
 14 17  1  0
 15 21  2  0
 15 16  1  0
 16 17  2  0
 17 18  1  0
 18 19  1  0
 18 20  2  0
 20 21  1  0
 21 22  1  0
 23 24  1  0
 24 25  1  0
 25 27  2  0
 25 26  2  0
 25 28  1  0
  2 29  1  0
  4 30  1  0
  7 31  1  0
 11 32  1  0
 11 33  1  0
 11 34  1  0
 15 35  1  0
 16 36  1  0
 20 37  1  0
 23 38  1  0
 23 39  1  0
 24 40  1  0
 24 41  1  0
 28 42  1  0
 28 43  1  0
 28 44  1  0
M  END
>  <s_m_entry_id>  (17) 
66

>  <MODEL>  (17) 
20

>  <REMARK>  (17) 
 VINA RESULT:    -6.331      2.058      2.383
 INTER + INTRA:          -8.597
 INTER:                  -8.914
 INTRA:                   0.316
 UNBOUND:                -0.416
  Name = /scratch/kmzp800/tmprcvzwpuy/tmpt5ubkg0d.pdb
  7 active torsions:
  status: ('A' for Active; 'I' for Inactive)
    1  A    between atoms: C3_3  and  O1_4
    2  A    between atoms: O1_4  and  C4_5
    3  A    between atoms: N2_11  and  C9_12
    4  A    between atoms: C9_12  and  C10_13
    5  A    between atoms: C10_13  and  S1_14
    6  A    between atoms: S1_14  and  C11_17
    7  A    between atoms: N4_20  and  C13_21
                            x       y       z     vdW  Elec       q    Type
                         _______ _______ _______ _____ _____    ______ ____

>  <TORSDO>  (17) 
F 5

>  <grid_id>  (17) 
p38-prepared

>  <grid_path>  (17) 
/projects/mai/users/kmzp800_harry/pmx_colab/docking_jobs/p38/vina_docking/input_files/p38_vina.pdbqt

>  <grid_filename>  (17) 
p38_vina.pdbqt

>  <docking_score>  (17) 
-6.331

>  <compound_name>  (17) 
lig_p38a_2bb

>  <index_string>  (17) 
17:0:19

$$$$
lig_p38a_2aa
     RDKit          3D

 43 45  0  0  1  0  0  0  0  0999 V2000
   33.0940   37.2050   26.1270 N   0  0  0  0  0  0  0  0  0  0  0  0
   33.2700   37.1190   24.7090 C   0  0  0  0  0  0  0  0  0  0  0  0
   33.6250   38.2160   23.9820 N   0  0  0  0  0  0  0  0  0  0  0  0
   33.7930   38.1420   22.6360 C   0  0  0  0  0  0  0  0  0  0  0  0
   33.6010   36.9290   21.9830 C   0  0  0  0  0  0  0  0  0  0  0  0
   33.7650   36.8180   20.6080 C   0  0  0  0  0  0  0  0  0  0  0  0
   33.5570   35.5860   19.9790 C   0  0  0  0  0  0  0  0  0  0  0  0
   33.2030   34.4730   20.7580 C   0  0  0  0  0  0  0  0  0  0  0  0
   33.0300   33.3570   20.1950 O   0  0  0  0  0  0  0  0  0  0  0  0
   33.0450   34.5960   22.1140 N   0  0  0  0  0  0  0  0  0  0  0  0
   32.6710   33.4250   22.9030 C   0  0  0  0  0  0  0  0  0  0  0  0
   33.2350   35.8010   22.7370 C   0  0  0  0  0  0  0  0  0  0  0  0
   33.0790   35.9260   24.0840 N   0  0  0  0  0  0  0  0  0  0  0  0
   33.2660   38.4200   26.9210 C   0  0  0  0  0  0  0  0  0  0  0  0
   31.9450   39.1720   27.0370 C   0  0  0  0  0  0  0  0  0  0  0  0
   31.8380   40.1180   26.0180 O   0  0  0  0  0  0  0  0  0  0  0  0
   33.8490   38.0850   28.2880 C   0  0  0  0  0  0  0  0  0  0  0  0
   34.8030   37.0730   28.1710 O   0  0  0  0  0  0  0  0  0  0  0  0
   33.7350   35.4320   18.5950 O   0  0  0  0  0  0  0  0  0  0  0  0
   34.9560   35.5660   17.9200 C   0  0  0  0  0  0  0  0  0  0  0  0
   36.1110   35.8030   18.6750 C   0  0  0  0  0  0  0  0  0  0  0  0
   37.3530   35.9360   18.0470 C   0  0  0  0  0  0  0  0  0  0  0  0
   37.4470   35.8240   16.6580 C   0  0  0  0  0  0  0  0  0  0  0  0
   38.6500   35.9530   16.0490 F   0  0  0  0  0  0  0  0  0  0  0  0
   36.3050   35.5620   15.8980 C   0  0  0  0  0  0  0  0  0  0  0  0
   35.0600   35.4300   16.5210 C   0  0  0  0  0  0  0  0  0  0  0  0
   33.9790   35.1150   15.7680 F   0  0  0  0  0  0  0  0  0  0  0  0
   32.8256   36.3448   26.6260 H   0  0  0  0  0  0  0  0  0  0  0  0
   34.0796   39.0374   22.0650 H   0  0  0  0  0  0  0  0  0  0  0  0
   34.0578   37.6971   20.0151 H   0  0  0  0  0  0  0  0  0  0  0  0
   32.7476   33.6647   23.9738 H   0  0  0  0  0  0  0  0  0  0  0  0
   31.6363   33.1375   22.6647 H   0  0  0  0  0  0  0  0  0  0  0  0
   33.3475   32.5910   22.6647 H   0  0  0  0  0  0  0  0  0  0  0  0
   33.9803   39.0825   26.4102 H   0  0  0  0  0  0  0  0  0  0  0  0
   31.1122   38.4577   26.9585 H   0  0  0  0  0  0  0  0  0  0  0  0
   31.9088   39.6859   28.0089 H   0  0  0  0  0  0  0  0  0  0  0  0
   31.7360   41.0196   26.4141 H   0  0  0  0  0  0  0  0  0  0  0  0
   34.3224   38.9833   28.7110 H   0  0  0  0  0  0  0  0  0  0  0  0
   33.0396   37.7403   28.9484 H   0  0  0  0  0  0  0  0  0  0  0  0
   35.0822   36.7768   29.0734 H   0  0  0  0  0  0  0  0  0  0  0  0
   36.0408   35.8851   19.7697 H   0  0  0  0  0  0  0  0  0  0  0  0
   38.2552   36.1286   18.6462 H   0  0  0  0  0  0  0  0  0  0  0  0
   36.3851   35.4591   14.8058 H   0  0  0  0  0  0  0  0  0  0  0  0
  1 14  1  0
  1  2  1  0
  2  3  2  0
  2 13  1  0
  3  4  1  0
  4  5  2  0
  5 12  1  0
  5  6  1  0
  6  7  2  0
  7  8  1  0
  7 19  1  0
  8 10  1  0
  8  9  2  0
 10 12  1  0
 10 11  1  0
 12 13  2  0
 14 15  1  0
 14 17  1  0
 15 16  1  0
 17 18  1  0
 19 20  1  0
 20 21  2  0
 20 26  1  0
 21 22  1  0
 22 23  2  0
 23 24  1  0
 23 25  1  0
 25 26  2  0
 26 27  1  0
  1 28  1  0
  4 29  1  0
  6 30  1  0
 11 31  1  0
 11 32  1  0
 11 33  1  0
 14 34  1  0
 15 35  1  0
 15 36  1  0
 16 37  1  0
 17 38  1  0
 17 39  1  0
 18 40  1  0
 21 41  1  0
 22 42  1  0
 25 43  1  0
M  END
>  <s_m_entry_id>  (18) 
67

>  <MODEL>  (18) 
4

>  <REMARK>  (18) 
 VINA RESULT:    -7.803      1.351      1.624
 INTER + INTRA:         -10.389
 INTER:                  -9.797
 INTRA:                  -0.592
 UNBOUND:                 0.151
  Name = /scratch/kmzp800/tmpcw7r4w9y/tmptaezudi5.pdb
  8 active torsions:
  status: ('A' for Active; 'I' for Inactive)
    1  A    between atoms: O1_1  and  C1_2
    2  A    between atoms: C1_2  and  C2_3
    3  A    between atoms: C2_3  and  N1_4
    4  A    between atoms: C2_3  and  C17_26
    5  A    between atoms: C7_10  and  O2_11
    6  A    between atoms: O2_11  and  C8_12
    7  A    between atoms: N3_22  and  C15_23
    8  A    between atoms: C17_26  and  O4_27
                            x       y       z     vdW  Elec       q    Type
                         _______ _______ _______ _____ _____    ______ ____

>  <TORSDO>  (18) 
F 7

>  <grid_id>  (18) 
p38-prepared

>  <grid_path>  (18) 
/projects/mai/users/kmzp800_harry/pmx_colab/docking_jobs/p38/vina_docking/input_files/p38_vina.pdbqt

>  <grid_filename>  (18) 
p38_vina.pdbqt

>  <docking_score>  (18) 
-7.803

>  <compound_name>  (18) 
lig_p38a_2aa

>  <index_string>  (18) 
18:0:3

$$$$
lig_p38a_2n
     RDKit          3D

 53 56  0  0  1  0  0  0  0  0999 V2000
   32.8690   34.7090   22.1790 N   0  0  0  0  0  0  0  0  0  0  0  0
   33.1100   34.5440   20.8370 C   0  0  0  0  0  0  0  0  0  0  0  0
   33.0570   33.3950   20.3180 O   0  0  0  0  0  0  0  0  0  0  0  0
   33.4180   35.6460   20.0260 C   0  0  0  0  0  0  0  0  0  0  0  0
   33.4520   36.9230   20.5980 C   0  0  0  0  0  0  0  0  0  0  0  0
   33.1990   37.0800   21.9540 C   0  0  0  0  0  0  0  0  0  0  0  0
   33.2280   38.3350   22.5530 C   0  0  0  0  0  0  0  0  0  0  0  0
   32.9750   38.4540   23.8810 N   0  0  0  0  0  0  0  0  0  0  0  0
   32.6890   37.3650   24.6450 C   0  0  0  0  0  0  0  0  0  0  0  0
   32.4220   37.4920   26.0450 N   0  0  0  0  0  0  0  0  0  0  0  0
   32.6560   36.1310   24.0740 N   0  0  0  0  0  0  0  0  0  0  0  0
   32.9050   35.9570   22.7460 C   0  0  0  0  0  0  0  0  0  0  0  0
   32.4130   38.7250   26.8330 C   0  0  0  0  0  0  0  0  0  0  0  0
   31.3880   38.6990   27.9740 C   0  0  0  0  0  0  0  0  0  0  0  0
   32.0400   38.2860   29.2940 C   0  0  0  0  0  0  0  0  0  0  0  0
   33.1480   39.1080   29.5590 O   0  0  0  0  0  0  0  0  0  0  0  0
   34.1520   38.7020   28.6670 C   0  0  0  0  0  0  0  0  0  0  0  0
   33.8190   39.1760   27.2520 C   0  0  0  0  0  0  0  0  0  0  0  0
   32.5670   33.5380   23.0070 C   0  0  0  0  0  0  0  0  0  0  0  0
   31.0890   33.4990   23.3770 C   0  0  0  0  0  0  0  0  0  0  0  0
   30.3090   32.6690   22.3760 C   0  0  0  0  0  0  0  0  0  0  0  0
   29.5030   33.5060   21.6070 O   0  0  0  0  0  0  0  0  0  0  0  0
   33.6440   35.4540   18.6540 O   0  0  0  0  0  0  0  0  0  0  0  0
   34.8900   35.5600   18.0210 C   0  0  0  0  0  0  0  0  0  0  0  0
   36.0180   35.8220   18.8080 C   0  0  0  0  0  0  0  0  0  0  0  0
   37.2790   35.9460   18.2190 C   0  0  0  0  0  0  0  0  0  0  0  0
   37.4200   35.8170   16.8360 C   0  0  0  0  0  0  0  0  0  0  0  0
   38.6420   35.9360   16.2650 F   0  0  0  0  0  0  0  0  0  0  0  0
   36.2970   35.5820   16.0380 C   0  0  0  0  0  0  0  0  0  0  0  0
   35.0330   35.4550   16.6230 C   0  0  0  0  0  0  0  0  0  0  0  0
   33.9520   35.2890   15.8220 F   0  0  0  0  0  0  0  0  0  0  0  0
   33.6787   37.8004   19.9744 H   0  0  0  0  0  0  0  0  0  0  0  0
   33.4552   39.2281   21.9523 H   0  0  0  0  0  0  0  0  0  0  0  0
   32.2135   36.6208   26.5534 H   0  0  0  0  0  0  0  0  0  0  0  0
   32.0562   39.5196   26.1612 H   0  0  0  0  0  0  0  0  0  0  0  0
   30.9522   39.7026   28.0877 H   0  0  0  0  0  0  0  0  0  0  0  0
   30.6088   37.9635   27.7254 H   0  0  0  0  0  0  0  0  0  0  0  0
   31.3083   38.3865   30.1091 H   0  0  0  0  0  0  0  0  0  0  0  0
   32.3745   37.2407   29.2207 H   0  0  0  0  0  0  0  0  0  0  0  0
   35.1135   39.1355   28.9793 H   0  0  0  0  0  0  0  0  0  0  0  0
   34.2175   37.6040   28.6734 H   0  0  0  0  0  0  0  0  0  0  0  0
   34.5547   38.7560   26.5503 H   0  0  0  0  0  0  0  0  0  0  0  0
   33.8518   40.2754   27.2358 H   0  0  0  0  0  0  0  0  0  0  0  0
   32.8222   32.6260   22.4475 H   0  0  0  0  0  0  0  0  0  0  0  0
   33.1590   33.6000   23.9321 H   0  0  0  0  0  0  0  0  0  0  0  0
   30.9786   33.0559   24.3778 H   0  0  0  0  0  0  0  0  0  0  0  0
   30.6947   34.5259   23.3694 H   0  0  0  0  0  0  0  0  0  0  0  0
   31.0097   32.1310   21.7206 H   0  0  0  0  0  0  0  0  0  0  0  0
   29.6789   31.9442   22.9123 H   0  0  0  0  0  0  0  0  0  0  0  0
   28.9548   34.0753   22.2032 H   0  0  0  0  0  0  0  0  0  0  0  0
   35.9108   35.9310   19.8973 H   0  0  0  0  0  0  0  0  0  0  0  0
   38.1611   36.1454   18.8453 H   0  0  0  0  0  0  0  0  0  0  0  0
   36.4075   35.4967   14.9469 H   0  0  0  0  0  0  0  0  0  0  0  0
  1 12  1  0
  1 19  1  0
  1  2  1  0
  2  3  2  0
  2  4  1  0
  4  5  2  0
  4 23  1  0
  5  6  1  0
  6  7  1  0
  6 12  2  0
  7  8  2  0
  8  9  1  0
  9 10  1  0
  9 11  2  0
 10 13  1  0
 11 12  1  0
 13 18  1  0
 13 14  1  0
 14 15  1  0
 15 16  1  0
 16 17  1  0
 17 18  1  0
 19 20  1  0
 20 21  1  0
 21 22  1  0
 23 24  1  0
 24 25  2  0
 24 30  1  0
 25 26  1  0
 26 27  2  0
 27 28  1  0
 27 29  1  0
 29 30  2  0
 30 31  1  0
  5 32  1  0
  7 33  1  0
 10 34  1  0
 13 35  1  0
 14 36  1  0
 14 37  1  0
 15 38  1  0
 15 39  1  0
 17 40  1  0
 17 41  1  0
 18 42  1  0
 18 43  1  0
 19 44  1  0
 19 45  1  0
 20 46  1  0
 20 47  1  0
 21 48  1  0
 21 49  1  0
 22 50  1  0
 25 51  1  0
 26 52  1  0
 29 53  1  0
M  END
>  <s_m_entry_id>  (19) 
68

>  <MODEL>  (19) 
1

>  <REMARK>  (19) 
 VINA RESULT:   -10.070      0.000      0.000
 INTER + INTRA:         -11.814
 INTER:                 -11.184
 INTRA:                  -0.630
 UNBOUND:                 2.083
  Name = /scratch/kmzp800/tmpmghywfz0/tmpulmwi4yj.pdb
  7 active torsions:
  status: ('A' for Active; 'I' for Inactive)
    1  A    between atoms: O1_1  and  C1_2
    2  A    between atoms: C1_2  and  C2_3
    3  A    between atoms: C2_3  and  C3_4
    4  A    between atoms: C3_4  and  N1_5
    5  A    between atoms: C5_8  and  O3_9
    6  A    between atoms: O3_9  and  C6_10
    7  A    between atoms: N3_23  and  C16_24
                            x       y       z     vdW  Elec       q    Type
                         _______ _______ _______ _____ _____    ______ ____

>  <TORSDO>  (19) 
F 7

>  <grid_id>  (19) 
p38-prepared

>  <grid_path>  (19) 
/projects/mai/users/kmzp800_harry/pmx_colab/docking_jobs/p38/vina_docking/input_files/p38_vina.pdbqt

>  <grid_filename>  (19) 
p38_vina.pdbqt

>  <docking_score>  (19) 
-10.07

>  <compound_name>  (19) 
lig_p38a_2n

>  <index_string>  (19) 
19:0:0

$$$$
lig_p38a_2ff
     RDKit          3D

 49 52  0  0  1  0  0  0  0  0999 V2000
   32.7130   38.8360   25.6180 N   0  0  0  0  0  0  0  0  0  0  0  0
   32.8830   38.4030   24.2670 C   0  0  0  0  0  0  0  0  0  0  0  0
   32.6820   39.2840   23.2510 N   0  0  0  0  0  0  0  0  0  0  0  0
   32.8370   38.9070   21.9550 C   0  0  0  0  0  0  0  0  0  0  0  0
   33.2070   37.5990   21.6560 C   0  0  0  0  0  0  0  0  0  0  0  0
   33.3680   37.1790   20.3400 C   0  0  0  0  0  0  0  0  0  0  0  0
   33.7280   35.8610   20.0700 C   0  0  0  0  0  0  0  0  0  0  0  0
   33.9600   34.9780   21.1480 C   0  0  0  0  0  0  0  0  0  0  0  0
   34.3500   33.7990   20.9190 O   0  0  0  0  0  0  0  0  0  0  0  0
   33.7890   35.4040   22.4390 N   0  0  0  0  0  0  0  0  0  0  0  0
   34.0180   34.4730   23.5410 C   0  0  0  0  0  0  0  0  0  0  0  0
   33.4150   36.6930   22.7090 C   0  0  0  0  0  0  0  0  0  0  0  0
   33.2480   37.1200   23.9920 N   0  0  0  0  0  0  0  0  0  0  0  0
   31.0740   37.3920   29.1140 C   0  0  0  0  0  0  0  0  0  0  0  0
   31.5330   38.8040   28.7280 C   0  0  0  0  0  0  0  0  0  0  0  0
   32.9030   38.7720   28.0550 C   0  0  0  0  0  0  0  0  0  0  0  0
   32.8810   37.9480   26.7590 C   0  0  0  0  0  0  0  0  0  0  0  0
   31.7910   36.8630   26.7430 C   0  0  0  0  0  0  0  0  0  0  0  0
   31.5530   36.3030   28.1430 C   0  0  0  0  0  0  0  0  0  0  0  0
   29.6830   37.3650   29.2030 O   0  0  0  0  0  0  0  0  0  0  0  0
   33.8870   35.4760   18.7310 O   0  0  0  0  0  0  0  0  0  0  0  0
   35.0670   35.6060   17.9860 C   0  0  0  0  0  0  0  0  0  0  0  0
   36.2550   35.8900   18.6680 C   0  0  0  0  0  0  0  0  0  0  0  0
   37.4570   36.0400   17.9710 C   0  0  0  0  0  0  0  0  0  0  0  0
   37.4770   35.9140   16.5800 C   0  0  0  0  0  0  0  0  0  0  0  0
   38.6420   36.0580   15.9040 F   0  0  0  0  0  0  0  0  0  0  0  0
   36.2930   35.6530   15.8860 C   0  0  0  0  0  0  0  0  0  0  0  0
   35.0890   35.5020   16.5790 C   0  0  0  0  0  0  0  0  0  0  0  0
   33.9490   35.2980   15.8750 F   0  0  0  0  0  0  0  0  0  0  0  0
   32.4606   39.8193   25.7921 H   0  0  0  0  0  0  0  0  0  0  0  0
   32.6707   39.6326   21.1452 H   0  0  0  0  0  0  0  0  0  0  0  0
   33.2111   37.8872   19.5131 H   0  0  0  0  0  0  0  0  0  0  0  0
   33.8886   34.9991   24.4983 H   0  0  0  0  0  0  0  0  0  0  0  0
   33.2968   33.6449   23.4773 H   0  0  0  0  0  0  0  0  0  0  0  0
   35.0411   34.0739   23.4773 H   0  0  0  0  0  0  0  0  0  0  0  0
   31.5329   37.1642   30.0874 H   0  0  0  0  0  0  0  0  0  0  0  0
   30.8015   39.2421   28.0330 H   0  0  0  0  0  0  0  0  0  0  0  0
   31.6075   39.4095   29.6433 H   0  0  0  0  0  0  0  0  0  0  0  0
   33.2074   39.8020   27.8173 H   0  0  0  0  0  0  0  0  0  0  0  0
   33.6146   38.3004   28.7488 H   0  0  0  0  0  0  0  0  0  0  0  0
   33.8456   37.4226   26.7000 H   0  0  0  0  0  0  0  0  0  0  0  0
   30.8543   37.3002   26.3668 H   0  0  0  0  0  0  0  0  0  0  0  0
   32.1240   36.0426   26.0903 H   0  0  0  0  0  0  0  0  0  0  0  0
   32.4936   35.8761   28.5213 H   0  0  0  0  0  0  0  0  0  0  0  0
   30.7704   35.5328   28.0768 H   0  0  0  0  0  0  0  0  0  0  0  0
   29.4133   37.3598   30.1555 H   0  0  0  0  0  0  0  0  0  0  0  0
   36.2429   35.9962   19.7628 H   0  0  0  0  0  0  0  0  0  0  0  0
   38.3867   36.2571   18.5174 H   0  0  0  0  0  0  0  0  0  0  0  0
   36.3086   35.5660   14.7896 H   0  0  0  0  0  0  0  0  0  0  0  0
  1  2  1  0
  1 17  1  0
  2  3  2  0
  2 13  1  0
  3  4  1  0
  4  5  2  0
  5 12  1  0
  5  6  1  0
  6  7  2  0
  7  8  1  0
  7 21  1  0
  8 10  1  0
  8  9  2  0
 10 12  1  0
 10 11  1  0
 12 13  2  0
 14 20  1  0
 14 15  1  0
 14 19  1  0
 15 16  1  0
 16 17  1  0
 17 18  1  0
 18 19  1  0
 21 22  1  0
 22 23  2  0
 22 28  1  0
 23 24  1  0
 24 25  2  0
 25 26  1  0
 25 27  1  0
 27 28  2  0
 28 29  1  0
  1 30  1  0
  4 31  1  0
  6 32  1  0
 11 33  1  0
 11 34  1  0
 11 35  1  0
 14 36  1  0
 15 37  1  0
 15 38  1  0
 16 39  1  0
 16 40  1  0
 17 41  1  0
 18 42  1  0
 18 43  1  0
 19 44  1  0
 19 45  1  0
 20 46  1  0
 23 47  1  0
 24 48  1  0
 27 49  1  0
M  END
>  <s_m_entry_id>  (20) 
69

>  <MODEL>  (20) 
2

>  <REMARK>  (20) 
 VINA RESULT:    -9.102      1.471      1.748
 INTER + INTRA:         -10.451
 INTER:                 -10.130
 INTRA:                  -0.321
 UNBOUND:                 0.513
  Name = /scratch/kmzp800/tmpafoxbls7/tmp9n8m6aog.pdb
  5 active torsions:
  status: ('A' for Active; 'I' for Inactive)
    1  A    between atoms: O1_1  and  C1_2
    2  A    between atoms: C4_5  and  N1_6
    3  A    between atoms: C9_12  and  O2_13
    4  A    between atoms: O2_13  and  C10_14
    5  A    between atoms: N3_24  and  C17_25
                            x       y       z     vdW  Elec       q    Type
                         _______ _______ _______ _____ _____    ______ ____

>  <TORSDO>  (20) 
F 4

>  <grid_id>  (20) 
p38-prepared

>  <grid_path>  (20) 
/projects/mai/users/kmzp800_harry/pmx_colab/docking_jobs/p38/vina_docking/input_files/p38_vina.pdbqt

>  <grid_filename>  (20) 
p38_vina.pdbqt

>  <docking_score>  (20) 
-9.102

>  <compound_name>  (20) 
lig_p38a_2ff

>  <index_string>  (20) 
20:0:1

$$$$
lig_p38a_2x
     RDKit          3D

 43 46  0  0  1  0  0  0  0  0999 V2000
   33.3960   35.6420   19.9460 C   0  0  0  0  0  0  0  0  0  0  0  0
   33.3490   36.9250   20.5020 C   0  0  0  0  0  0  0  0  0  0  0  0
   33.0870   37.0820   21.8570 C   0  0  0  0  0  0  0  0  0  0  0  0
   33.0410   38.3440   22.4410 C   0  0  0  0  0  0  0  0  0  0  0  0
   32.7830   38.4620   23.7700 N   0  0  0  0  0  0  0  0  0  0  0  0
   32.5680   37.3630   24.5450 C   0  0  0  0  0  0  0  0  0  0  0  0
   32.2960   37.4990   25.9410 N   0  0  0  0  0  0  0  0  0  0  0  0
   32.6080   36.1230   23.9890 N   0  0  0  0  0  0  0  0  0  0  0  0
   32.8620   35.9510   22.6610 C   0  0  0  0  0  0  0  0  0  0  0  0
   32.8990   34.7000   22.1070 N   0  0  0  0  0  0  0  0  0  0  0  0
   32.6590   33.5290   22.9460 C   0  0  0  0  0  0  0  0  0  0  0  0
   33.1560   34.5310   20.7710 C   0  0  0  0  0  0  0  0  0  0  0  0
   33.1820   33.3740   20.2690 O   0  0  0  0  0  0  0  0  0  0  0  0
   32.2630   38.7890   26.6160 C   0  0  0  0  0  0  0  0  0  0  0  0
   31.4240   38.6810   27.8680 C   0  0  0  0  0  0  0  0  0  0  0  0
   32.0930   39.3360   28.9110 O   0  0  0  0  0  0  0  0  0  0  0  0
   33.4570   39.1770   28.6280 C   0  0  0  0  0  0  0  0  0  0  0  0
   33.6290   39.1420   27.1280 C   0  0  0  0  0  0  0  0  0  0  0  0
   33.6350   35.4470   18.5760 O   0  0  0  0  0  0  0  0  0  0  0  0
   37.2700   35.9560   18.1710 C   0  0  0  0  0  0  0  0  0  0  0  0
   36.0040   35.8290   18.7480 C   0  0  0  0  0  0  0  0  0  0  0  0
   34.8850   35.5560   17.9540 C   0  0  0  0  0  0  0  0  0  0  0  0
   35.0420   35.4450   16.5570 C   0  0  0  0  0  0  0  0  0  0  0  0
   33.9690   35.2680   15.7470 F   0  0  0  0  0  0  0  0  0  0  0  0
   36.3090   35.5750   15.9830 C   0  0  0  0  0  0  0  0  0  0  0  0
   37.4240   35.8200   16.7890 C   0  0  0  0  0  0  0  0  0  0  0  0
   38.6510   35.9430   16.2280 F   0  0  0  0  0  0  0  0  0  0  0  0
   33.5191   37.8073   19.8675 H   0  0  0  0  0  0  0  0  0  0  0  0
   33.2127   39.2422   21.8297 H   0  0  0  0  0  0  0  0  0  0  0  0
   32.1156   36.6486   26.4934 H   0  0  0  0  0  0  0  0  0  0  0  0
   32.7184   33.8187   24.0055 H   0  0  0  0  0  0  0  0  0  0  0  0
   31.6591   33.1235   22.7322 H   0  0  0  0  0  0  0  0  0  0  0  0
   33.4188   32.7628   22.7322 H   0  0  0  0  0  0  0  0  0  0  0  0
   31.8779   39.5256   25.8956 H   0  0  0  0  0  0  0  0  0  0  0  0
   30.4452   39.1541   27.7004 H   0  0  0  0  0  0  0  0  0  0  0  0
   31.2682   37.6232   28.1265 H   0  0  0  0  0  0  0  0  0  0  0  0
   34.0248   40.0204   29.0479 H   0  0  0  0  0  0  0  0  0  0  0  0
   33.8304   38.2435   29.0742 H   0  0  0  0  0  0  0  0  0  0  0  0
   34.3655   38.3789   26.8363 H   0  0  0  0  0  0  0  0  0  0  0  0
   34.0014   40.0938   26.7215 H   0  0  0  0  0  0  0  0  0  0  0  0
   38.1452   36.1630   18.8044 H   0  0  0  0  0  0  0  0  0  0  0  0
   35.8861   35.9446   19.8355 H   0  0  0  0  0  0  0  0  0  0  0  0
   36.4293   35.4842   14.8934 H   0  0  0  0  0  0  0  0  0  0  0  0
  1  2  2  0
  1 12  1  0
  1 19  1  0
  2  3  1  0
  3  4  2  0
  3  9  1  0
  4  5  1  0
  5  6  2  0
  6  7  1  0
  6  8  1  0
  7 14  1  0
  8  9  2  0
  9 10  1  0
 10 11  1  0
 10 12  1  0
 12 13  2  0
 14 18  1  0
 14 15  1  0
 15 16  1  0
 16 17  1  0
 17 18  1  0
 19 22  1  0
 20 21  2  0
 20 26  1  0
 21 22  1  0
 22 23  2  0
 23 24  1  0
 23 25  1  0
 25 26  2  0
 26 27  1  0
  2 28  1  0
  4 29  1  0
  7 30  1  0
 11 31  1  0
 11 32  1  0
 11 33  1  0
 14 34  1  0
 15 35  1  0
 15 36  1  0
 17 37  1  0
 17 38  1  0
 18 39  1  0
 18 40  1  0
 20 41  1  0
 21 42  1  0
 25 43  1  0
M  END
>  <s_m_entry_id>  (21) 
70

>  <MODEL>  (21) 
1

>  <REMARK>  (21) 
 VINA RESULT:   -11.537      0.000      0.000
 INTER + INTRA:         -10.047
 INTER:                  -9.590
 INTRA:                  -0.457
 UNBOUND:                 3.513
  Name = /scratch/kmzp800/tmp3xapxw_h/tmpka87gmtv.pdb
  4 active torsions:
  status: ('A' for Active; 'I' for Inactive)
    1  A    between atoms: C3_3  and  O1_4
    2  A    between atoms: O1_4  and  C4_5
    3  A    between atoms: N2_11  and  C9_12
    4  A    between atoms: N4_19  and  C14_20
                            x       y       z     vdW  Elec       q    Type
                         _______ _______ _______ _____ _____    ______ ____

>  <TORSDO>  (21) 
F 3

>  <grid_id>  (21) 
p38-prepared

>  <grid_path>  (21) 
/projects/mai/users/kmzp800_harry/pmx_colab/docking_jobs/p38/vina_docking/input_files/p38_vina.pdbqt

>  <grid_filename>  (21) 
p38_vina.pdbqt

>  <docking_score>  (21) 
-11.537

>  <compound_name>  (21) 
lig_p38a_2x

>  <index_string>  (21) 
21:0:0

$$$$
lig_p38a_3flw
     RDKit          3D

 49 51  0  0  1  0  0  0  0  0999 V2000
   33.1280   39.5170   24.9780 N   0  0  0  0  0  0  0  0  0  0  0  0
   33.3600   38.9090   23.7070 C   0  0  0  0  0  0  0  0  0  0  0  0
   33.4440   39.6900   22.5960 N   0  0  0  0  0  0  0  0  0  0  0  0
   33.6660   39.1450   21.3720 C   0  0  0  0  0  0  0  0  0  0  0  0
   33.8120   37.7670   21.2450 C   0  0  0  0  0  0  0  0  0  0  0  0
   34.0340   37.1770   20.0060 C   0  0  0  0  0  0  0  0  0  0  0  0
   34.1650   35.7930   19.9090 C   0  0  0  0  0  0  0  0  0  0  0  0
   34.1100   35.0130   21.0830 C   0  0  0  0  0  0  0  0  0  0  0  0
   34.2980   33.7670   21.0160 O   0  0  0  0  0  0  0  0  0  0  0  0
   33.8790   35.6080   22.2970 N   0  0  0  0  0  0  0  0  0  0  0  0
   33.8090   34.7840   23.5000 C   0  0  0  0  0  0  0  0  0  0  0  0
   33.7290   36.9650   22.3960 C   0  0  0  0  0  0  0  0  0  0  0  0
   33.5060   37.5600   23.6010 N   0  0  0  0  0  0  0  0  0  0  0  0
   32.9570   38.7460   26.2010 C   0  0  0  0  0  0  0  0  0  0  0  0
   31.5040   38.8210   26.6630 C   0  0  0  0  0  0  0  0  0  0  0  0
   31.2220   37.8230   27.7740 C   0  0  0  0  0  0  0  0  0  0  0  0
   30.2720   38.3460   28.6530 O   0  0  0  0  0  0  0  0  0  0  0  0
   33.8640   39.3160   27.2760 C   0  0  0  0  0  0  0  0  0  0  0  0
   35.1880   38.5770   27.2960 C   0  0  0  0  0  0  0  0  0  0  0  0
   35.1730   37.5690   26.3330 O   0  0  0  0  0  0  0  0  0  0  0  0
   34.3930   35.2310   18.6450 O   0  0  0  0  0  0  0  0  0  0  0  0
   35.4510   35.5790   17.7930 C   0  0  0  0  0  0  0  0  0  0  0  0
   35.2460   35.8120   16.4220 C   0  0  0  0  0  0  0  0  0  0  0  0
   36.3150   36.1780   15.6000 C   0  0  0  0  0  0  0  0  0  0  0  0
   37.5950   36.3180   16.1400 C   0  0  0  0  0  0  0  0  0  0  0  0
   38.6320   36.6710   15.3430 F   0  0  0  0  0  0  0  0  0  0  0  0
   37.8050   36.0980   17.5040 C   0  0  0  0  0  0  0  0  0  0  0  0
   36.7370   35.7320   18.3290 C   0  0  0  0  0  0  0  0  0  0  0  0
   36.9540   35.5250   19.6510 F   0  0  0  0  0  0  0  0  0  0  0  0
   33.0796   40.5445   25.0318 H   0  0  0  0  0  0  0  0  0  0  0  0
   33.7302   39.7908   20.4839 H   0  0  0  0  0  0  0  0  0  0  0  0
   34.1062   37.8017   19.1035 H   0  0  0  0  0  0  0  0  0  0  0  0
   33.8638   35.4286   24.3897 H   0  0  0  0  0  0  0  0  0  0  0  0
   32.8603   34.2273   23.5084 H   0  0  0  0  0  0  0  0  0  0  0  0
   34.6502   34.0752   23.5084 H   0  0  0  0  0  0  0  0  0  0  0  0
   33.2179   37.6941   26.0126 H   0  0  0  0  0  0  0  0  0  0  0  0
   31.2984   39.8361   27.0334 H   0  0  0  0  0  0  0  0  0  0  0  0
   30.8563   38.5783   25.8077 H   0  0  0  0  0  0  0  0  0  0  0  0
   30.8391   36.8891   27.3367 H   0  0  0  0  0  0  0  0  0  0  0  0
   32.1527   37.6218   28.3247 H   0  0  0  0  0  0  0  0  0  0  0  0
   30.5623   38.1862   29.5859 H   0  0  0  0  0  0  0  0  0  0  0  0
   34.0463   40.3809   27.0694 H   0  0  0  0  0  0  0  0  0  0  0  0
   33.3751   39.1994   28.2545 H   0  0  0  0  0  0  0  0  0  0  0  0
   36.0041   39.2812   27.0768 H   0  0  0  0  0  0  0  0  0  0  0  0
   35.3442   38.1320   28.2898 H   0  0  0  0  0  0  0  0  0  0  0  0
   35.1599   36.6858   26.7800 H   0  0  0  0  0  0  0  0  0  0  0  0
   34.2383   35.7056   15.9938 H   0  0  0  0  0  0  0  0  0  0  0  0
   36.1482   36.3559   14.5274 H   0  0  0  0  0  0  0  0  0  0  0  0
   38.8128   36.2130   17.9296 H   0  0  0  0  0  0  0  0  0  0  0  0
  1 14  1  0
  1  2  1  0
  2  3  2  0
  2 13  1  0
  3  4  1  0
  4  5  2  0
  5 12  1  0
  5  6  1  0
  6  7  2  0
  7  8  1  0
  7 21  1  0
  8 10  1  0
  8  9  2  0
 10 12  1  0
 10 11  1  0
 12 13  2  0
 14 15  1  0
 14 18  1  0
 15 16  1  0
 16 17  1  0
 18 19  1  0
 19 20  1  0
 21 22  1  0
 22 28  1  0
 22 23  2  0
 23 24  1  0
 24 25  2  0
 25 27  1  0
 25 26  1  0
 27 28  2  0
 28 29  1  0
  1 30  1  0
  4 31  1  0
  6 32  1  0
 11 33  1  0
 11 34  1  0
 11 35  1  0
 14 36  1  0
 15 37  1  0
 15 38  1  0
 16 39  1  0
 16 40  1  0
 17 41  1  0
 18 42  1  0
 18 43  1  0
 19 44  1  0
 19 45  1  0
 20 46  1  0
 23 47  1  0
 24 48  1  0
 27 49  1  0
M  END
>  <s_m_entry_id>  (22) 
71

>  <MODEL>  (22) 
3

>  <REMARK>  (22) 
 VINA RESULT:    -7.986      1.182      1.479
 INTER + INTRA:         -11.583
 INTER:                 -10.476
 INTRA:                  -1.107
 UNBOUND:                 0.138
  Name = /scratch/kmzp800/tmps7kfnij8/tmp44yci8wc.pdb
  10 active torsions:
  status: ('A' for Active; 'I' for Inactive)
    1  A    between atoms: O1_1  and  C1_2
    2  A    between atoms: C1_2  and  C2_3
    3  A    between atoms: C2_3  and  C3_4
    4  A    between atoms: C3_4  and  N1_5
    5  A    between atoms: C3_4  and  C18_27
    6  A    between atoms: C8_11  and  O2_12
    7  A    between atoms: O2_12  and  C9_13
    8  A    between atoms: N3_23  and  C16_24
    9  A    between atoms: C18_27  and  C19_28
   10  A    between atoms: C19_28  and  O4_29
                            x       y       z     vdW  Elec       q    Type
                         _______ _______ _______ _____ _____    ______ ____

>  <TORSDO>  (22) 
F 9

>  <grid_id>  (22) 
p38-prepared

>  <grid_path>  (22) 
/projects/mai/users/kmzp800_harry/pmx_colab/docking_jobs/p38/vina_docking/input_files/p38_vina.pdbqt

>  <grid_filename>  (22) 
p38_vina.pdbqt

>  <docking_score>  (22) 
-7.986

>  <compound_name>  (22) 
lig_p38a_3flw

>  <index_string>  (22) 
22:0:2

$$$$
lig_p38a_3flz
     RDKit          3D

 46 49  0  0  1  0  0  0  0  0999 V2000
   33.9480   36.2350   20.4800 C   0  0  0  0  0  0  0  0  0  0  0  0
   33.7050   37.6000   20.6200 C   0  0  0  0  0  0  0  0  0  0  0  0
   33.3940   38.1230   21.8690 C   0  0  0  0  0  0  0  0  0  0  0  0
   33.1350   39.4800   22.0390 C   0  0  0  0  0  0  0  0  0  0  0  0
   32.8290   39.9590   23.2730 N   0  0  0  0  0  0  0  0  0  0  0  0
   32.7680   39.1330   24.3510 C   0  0  0  0  0  0  0  0  0  0  0  0
   32.4410   39.6750   25.6370 N   0  0  0  0  0  0  0  0  0  0  0  0
   33.0190   37.8040   24.2030 N   0  0  0  0  0  0  0  0  0  0  0  0
   33.3310   37.2750   22.9870 C   0  0  0  0  0  0  0  0  0  0  0  0
   33.5910   35.9380   22.8470 N   0  0  0  0  0  0  0  0  0  0  0  0
   33.5410   35.0660   24.0180 C   0  0  0  0  0  0  0  0  0  0  0  0
   33.9100   35.4090   21.6230 C   0  0  0  0  0  0  0  0  0  0  0  0
   34.1980   34.1840   21.5190 O   0  0  0  0  0  0  0  0  0  0  0  0
   32.3480   38.8880   26.8620 C   0  0  0  0  0  0  0  0  0  0  0  0
   32.6980   39.7360   28.0920 C   0  0  0  0  0  0  0  0  0  0  0  0
   32.1810   39.0990   29.3910 C   0  0  0  0  0  0  0  0  0  0  0  0
   31.8480   37.7470   29.1980 O   0  0  0  0  0  0  0  0  0  0  0  0
   30.6830   37.7500   28.4110 C   0  0  0  0  0  0  0  0  0  0  0  0
   30.9840   38.1910   26.9710 C   0  0  0  0  0  0  0  0  0  0  0  0
   34.2640   35.7410   19.2060 O   0  0  0  0  0  0  0  0  0  0  0  0
   38.0380   35.9060   17.3580 C   0  0  0  0  0  0  0  0  0  0  0  0
   36.8740   35.8090   16.5900 C   0  0  0  0  0  0  0  0  0  0  0  0
   35.6250   35.7610   17.2160 C   0  0  0  0  0  0  0  0  0  0  0  0
   35.5310   35.8140   18.6110 C   0  0  0  0  0  0  0  0  0  0  0  0
   36.7050   35.9020   19.3770 C   0  0  0  0  0  0  0  0  0  0  0  0
   37.9550   35.9510   18.7510 C   0  0  0  0  0  0  0  0  0  0  0  0
   33.7593   38.2621   19.7433 H   0  0  0  0  0  0  0  0  0  0  0  0
   33.1779   40.1622   21.1772 H   0  0  0  0  0  0  0  0  0  0  0  0
   32.2597   40.6869   25.7005 H   0  0  0  0  0  0  0  0  0  0  0  0
   33.5760   35.6771   24.9320 H   0  0  0  0  0  0  0  0  0  0  0  0
   32.6080   34.4836   24.0019 H   0  0  0  0  0  0  0  0  0  0  0  0
   34.4013   34.3807   24.0019 H   0  0  0  0  0  0  0  0  0  0  0  0
   33.0985   38.0849   26.8205 H   0  0  0  0  0  0  0  0  0  0  0  0
   33.7916   39.8365   28.1556 H   0  0  0  0  0  0  0  0  0  0  0  0
   32.2163   40.7183   27.9780 H   0  0  0  0  0  0  0  0  0  0  0  0
   32.9635   39.1692   30.1610 H   0  0  0  0  0  0  0  0  0  0  0  0
   31.2759   39.6385   29.7067 H   0  0  0  0  0  0  0  0  0  0  0  0
   30.2595   36.7350   28.3939 H   0  0  0  0  0  0  0  0  0  0  0  0
   29.9689   38.4621   28.8503 H   0  0  0  0  0  0  0  0  0  0  0  0
   30.2002   38.8886   26.6409 H   0  0  0  0  0  0  0  0  0  0  0  0
   31.0068   37.2932   26.3359 H   0  0  0  0  0  0  0  0  0  0  0  0
   39.0202   35.9469   16.8644 H   0  0  0  0  0  0  0  0  0  0  0  0
   36.9409   35.7704   15.4927 H   0  0  0  0  0  0  0  0  0  0  0  0
   34.7113   35.6811   16.6087 H   0  0  0  0  0  0  0  0  0  0  0  0
   36.6412   35.9325   20.4747 H   0  0  0  0  0  0  0  0  0  0  0  0
   38.8712   36.0249   19.3553 H   0  0  0  0  0  0  0  0  0  0  0  0
  1  2  2  0
  1 12  1  0
  1 20  1  0
  2  3  1  0
  3  4  2  0
  3  9  1  0
  4  5  1  0
  5  6  2  0
  6  7  1  0
  6  8  1  0
  7 14  1  0
  8  9  2  0
  9 10  1  0
 10 11  1  0
 10 12  1  0
 12 13  2  0
 14 19  1  0
 14 15  1  0
 15 16  1  0
 16 17  1  0
 17 18  1  0
 18 19  1  0
 20 24  1  0
 21 26  2  0
 21 22  1  0
 22 23  2  0
 23 24  1  0
 24 25  2  0
 25 26  1  0
  2 27  1  0
  4 28  1  0
  7 29  1  0
 11 30  1  0
 11 31  1  0
 11 32  1  0
 14 33  1  0
 15 34  1  0
 15 35  1  0
 16 36  1  0
 16 37  1  0
 18 38  1  0
 18 39  1  0
 19 40  1  0
 19 41  1  0
 21 42  1  0
 22 43  1  0
 23 44  1  0
 25 45  1  0
 26 46  1  0
M  END
>  <s_m_entry_id>  (23) 
72

>  <MODEL>  (23) 
3

>  <REMARK>  (23) 
 VINA RESULT:    -9.945      1.350      1.527
 INTER + INTRA:         -10.343
 INTER:                  -9.748
 INTRA:                  -0.595
 UNBOUND:                 1.346
  Name = /scratch/kmzp800/tmpps70diia/tmpgaxjj5og.pdb
  4 active torsions:
  status: ('A' for Active; 'I' for Inactive)
    1  A    between atoms: C4_4  and  O1_5
    2  A    between atoms: O1_5  and  C5_6
    3  A    between atoms: N2_12  and  C10_13
    4  A    between atoms: N4_21  and  C16_22
                            x       y       z     vdW  Elec       q    Type
                         _______ _______ _______ _____ _____    ______ ____

>  <TORSDO>  (23) 
F 3

>  <grid_id>  (23) 
p38-prepared

>  <grid_path>  (23) 
/projects/mai/users/kmzp800_harry/pmx_colab/docking_jobs/p38/vina_docking/input_files/p38_vina.pdbqt

>  <grid_filename>  (23) 
p38_vina.pdbqt

>  <docking_score>  (23) 
-9.945

>  <compound_name>  (23) 
lig_p38a_3flz

>  <index_string>  (23) 
23:0:2

$$$$
lig_p38a_2y
     RDKit          3D

 45 47  0  0  1  0  0  0  0  0999 V2000
   31.9850   37.8150   25.7850 N   0  0  0  0  0  0  0  0  0  0  0  0
   32.3450   37.6140   24.4170 C   0  0  0  0  0  0  0  0  0  0  0  0
   32.6640   38.6740   23.6220 N   0  0  0  0  0  0  0  0  0  0  0  0
   33.0100   38.4930   22.3210 C   0  0  0  0  0  0  0  0  0  0  0  0
   33.0440   37.2080   21.7880 C   0  0  0  0  0  0  0  0  0  0  0  0
   33.3900   36.9900   20.4600 C   0  0  0  0  0  0  0  0  0  0  0  0
   33.4050   35.6930   19.9500 C   0  0  0  0  0  0  0  0  0  0  0  0
   33.1040   34.6140   20.8090 C   0  0  0  0  0  0  0  0  0  0  0  0
   33.1790   33.4300   20.3760 O   0  0  0  0  0  0  0  0  0  0  0  0
   32.7560   34.8460   22.1140 N   0  0  0  0  0  0  0  0  0  0  0  0
   32.4330   33.7180   22.9840 C   0  0  0  0  0  0  0  0  0  0  0  0
   32.7190   36.1200   22.6150 C   0  0  0  0  0  0  0  0  0  0  0  0
   32.3780   36.3530   23.9140 N   0  0  0  0  0  0  0  0  0  0  0  0
   31.8620   39.1420   26.3830 C   0  0  0  0  0  0  0  0  0  0  0  0
   32.5910   39.2350   27.7230 C   0  0  0  0  0  0  0  0  0  0  0  0
   33.8200   38.3420   27.7190 C   0  0  0  0  0  0  0  0  0  0  0  0
   31.6800   38.8310   28.8660 C   0  0  0  0  0  0  0  0  0  0  0  0
   32.9980   40.5540   27.9190 O   0  0  0  0  0  0  0  0  0  0  0  0
   33.7650   35.5110   18.6060 O   0  0  0  0  0  0  0  0  0  0  0  0
   35.0660   35.6150   18.0950 C   0  0  0  0  0  0  0  0  0  0  0  0
   36.1170   35.8350   18.9930 C   0  0  0  0  0  0  0  0  0  0  0  0
   37.4310   35.9540   18.5330 C   0  0  0  0  0  0  0  0  0  0  0  0
   37.7030   35.8640   17.1660 C   0  0  0  0  0  0  0  0  0  0  0  0
   38.9760   35.9780   16.7200 F   0  0  0  0  0  0  0  0  0  0  0  0
   36.6600   35.6670   16.2580 C   0  0  0  0  0  0  0  0  0  0  0  0
   35.3430   35.5450   16.7130 C   0  0  0  0  0  0  0  0  0  0  0  0
   34.3470   35.4040   15.8050 F   0  0  0  0  0  0  0  0  0  0  0  0
   31.8047   36.9896   26.3742 H   0  0  0  0  0  0  0  0  0  0  0  0
   33.2623   39.3588   21.6912 H   0  0  0  0  0  0  0  0  0  0  0  0
   33.6516   37.8397   19.8123 H   0  0  0  0  0  0  0  0  0  0  0  0
   32.5220   34.0287   24.0355 H   0  0  0  0  0  0  0  0  0  0  0  0
   31.4035   33.3852   22.7859 H   0  0  0  0  0  0  0  0  0  0  0  0
   33.1303   32.8907   22.7859 H   0  0  0  0  0  0  0  0  0  0  0  0
   32.2907   39.8837   25.6931 H   0  0  0  0  0  0  0  0  0  0  0  0
   30.7943   39.3366   26.5624 H   0  0  0  0  0  0  0  0  0  0  0  0
   34.1188   38.1249   28.7551 H   0  0  0  0  0  0  0  0  0  0  0  0
   33.5876   37.4007   27.1995 H   0  0  0  0  0  0  0  0  0  0  0  0
   34.6435   38.8539   27.1995 H   0  0  0  0  0  0  0  0  0  0  0  0
   32.1743   39.0502   29.8239 H   0  0  0  0  0  0  0  0  0  0  0  0
   30.7383   39.3959   28.8016 H   0  0  0  0  0  0  0  0  0  0  0  0
   31.4665   37.7538   28.8016 H   0  0  0  0  0  0  0  0  0  0  0  0
   33.0556   40.7408   28.8895 H   0  0  0  0  0  0  0  0  0  0  0  0
   35.9067   35.9149   20.0698 H   0  0  0  0  0  0  0  0  0  0  0  0
   38.2511   36.1185   19.2474 H   0  0  0  0  0  0  0  0  0  0  0  0
   36.8752   35.6076   15.1809 H   0  0  0  0  0  0  0  0  0  0  0  0
  1 14  1  0
  1  2  1  0
  2  3  2  0
  2 13  1  0
  3  4  1  0
  4  5  2  0
  5 12  1  0
  5  6  1  0
  6  7  2  0
  7  8  1  0
  7 19  1  0
  8 10  1  0
  8  9  2  0
 10 12  1  0
 10 11  1  0
 12 13  2  0
 14 15  1  0
 15 18  1  0
 15 17  1  0
 15 16  1  0
 19 20  1  0
 20 21  2  0
 20 26  1  0
 21 22  1  0
 22 23  2  0
 23 24  1  0
 23 25  1  0
 25 26  2  0
 26 27  1  0
  1 28  1  0
  4 29  1  0
  6 30  1  0
 11 31  1  0
 11 32  1  0
 11 33  1  0
 14 34  1  0
 14 35  1  0
 16 36  1  0
 16 37  1  0
 16 38  1  0
 17 39  1  0
 17 40  1  0
 17 41  1  0
 18 42  1  0
 21 43  1  0
 22 44  1  0
 25 45  1  0
M  END
>  <s_m_entry_id>  (24) 
73

>  <MODEL>  (24) 
1

>  <REMARK>  (24) 
 VINA RESULT:    -8.335      0.000      0.000
 INTER + INTRA:         -10.826
 INTER:                 -10.371
 INTRA:                  -0.455
 UNBOUND:                -0.298
  Name = /scratch/kmzp800/tmpm0fcmxlp/tmpuv8jhzvj.pdb
  8 active torsions:
  status: ('A' for Active; 'I' for Inactive)
    1  A    between atoms: O1_1  and  C1_2
    2  A    between atoms: C1_2  and  C2_3
    3  A    between atoms: C1_2  and  C3_4
    4  A    between atoms: C1_2  and  C4_5
    5  A    between atoms: C4_5  and  N1_6
    6  A    between atoms: C9_12  and  O2_13
    7  A    between atoms: O2_13  and  C10_14
    8  A    between atoms: N3_24  and  C17_25
                            x       y       z     vdW  Elec       q    Type
                         _______ _______ _______ _____ _____    ______ ____

>  <TORSDO>  (24) 
F 5

>  <grid_id>  (24) 
p38-prepared

>  <grid_path>  (24) 
/projects/mai/users/kmzp800_harry/pmx_colab/docking_jobs/p38/vina_docking/input_files/p38_vina.pdbqt

>  <grid_filename>  (24) 
p38_vina.pdbqt

>  <docking_score>  (24) 
-8.335

>  <compound_name>  (24) 
lig_p38a_2y

>  <index_string>  (24) 
24:0:0

$$$$
lig_p38a_2v
     RDKit          3D

 35 37  0  0  1  0  0  0  0  0999 V2000
   35.2890   36.1130   21.6990 C   0  0  0  0  0  0  0  0  0  0  0  0
   35.1860   37.5020   21.8390 C   0  0  0  0  0  0  0  0  0  0  0  0
   34.4620   38.0440   22.8930 C   0  0  0  0  0  0  0  0  0  0  0  0
   34.3480   39.4210   23.0590 C   0  0  0  0  0  0  0  0  0  0  0  0
   33.6320   39.9180   24.1000 N   0  0  0  0  0  0  0  0  0  0  0  0
   33.0220   39.0910   24.9900 C   0  0  0  0  0  0  0  0  0  0  0  0
   32.2780   39.6500   26.0730 N   0  0  0  0  0  0  0  0  0  0  0  0
   31.6030   38.8190   27.0570 C   0  0  0  0  0  0  0  0  0  0  0  0
   33.1220   37.7410   24.8430 N   0  0  0  0  0  0  0  0  0  0  0  0
   33.8290   37.1930   23.8140 C   0  0  0  0  0  0  0  0  0  0  0  0
   33.9260   35.8360   23.6690 N   0  0  0  0  0  0  0  0  0  0  0  0
   33.2610   34.9570   24.6290 C   0  0  0  0  0  0  0  0  0  0  0  0
   34.6370   35.2900   22.6320 C   0  0  0  0  0  0  0  0  0  0  0  0
   34.7160   34.0360   22.5060 O   0  0  0  0  0  0  0  0  0  0  0  0
   35.9940   35.5150   20.6390 O   0  0  0  0  0  0  0  0  0  0  0  0
   33.9900   35.1420   17.5110 C   0  0  0  0  0  0  0  0  0  0  0  0
   34.3230   35.1440   18.8680 C   0  0  0  0  0  0  0  0  0  0  0  0
   35.6210   35.4820   19.2840 C   0  0  0  0  0  0  0  0  0  0  0  0
   36.5770   35.8300   18.3170 C   0  0  0  0  0  0  0  0  0  0  0  0
   37.8340   36.1710   18.6930 F   0  0  0  0  0  0  0  0  0  0  0  0
   36.2430   35.8260   16.9600 C   0  0  0  0  0  0  0  0  0  0  0  0
   34.9510   35.4810   16.5560 C   0  0  0  0  0  0  0  0  0  0  0  0
   34.6300   35.4770   15.2400 F   0  0  0  0  0  0  0  0  0  0  0  0
   35.6792   38.1652   21.1131 H   0  0  0  0  0  0  0  0  0  0  0  0
   34.8365   40.1046   22.3490 H   0  0  0  0  0  0  0  0  0  0  0  0
   32.2175   40.6745   26.1600 H   0  0  0  0  0  0  0  0  0  0  0  0
   31.8753   39.1542   28.0687 H   0  0  0  0  0  0  0  0  0  0  0  0
   30.5144   38.9034   26.9233 H   0  0  0  0  0  0  0  0  0  0  0  0
   31.9087   37.7708   26.9233 H   0  0  0  0  0  0  0  0  0  0  0  0
   33.5051   35.2797   25.6519 H   0  0  0  0  0  0  0  0  0  0  0  0
   32.1724   35.0068   24.4788 H   0  0  0  0  0  0  0  0  0  0  0  0
   33.6050   33.9230   24.4788 H   0  0  0  0  0  0  0  0  0  0  0  0
   32.9712   34.8735   17.1950 H   0  0  0  0  0  0  0  0  0  0  0  0
   33.5621   34.8786   19.6167 H   0  0  0  0  0  0  0  0  0  0  0  0
   36.9994   36.0952   16.2081 H   0  0  0  0  0  0  0  0  0  0  0  0
  1  2  2  0
  1 13  1  0
  1 15  1  0
  2  3  1  0
  3  4  2  0
  3 10  1  0
  4  5  1  0
  5  6  2  0
  6  7  1  0
  6  9  1  0
  7  8  1  0
  9 10  2  0
 10 11  1  0
 11 12  1  0
 11 13  1  0
 13 14  2  0
 15 18  1  0
 16 17  2  0
 16 22  1  0
 17 18  1  0
 18 19  2  0
 19 20  1  0
 19 21  1  0
 21 22  2  0
 22 23  1  0
  2 24  1  0
  4 25  1  0
  7 26  1  0
  8 27  1  0
  8 28  1  0
  8 29  1  0
 12 30  1  0
 12 31  1  0
 12 32  1  0
 16 33  1  0
 17 34  1  0
 21 35  1  0
M  END
>  <s_m_entry_id>  (25) 
74

>  <MODEL>  (25) 
3

>  <REMARK>  (25) 
 VINA RESULT:    -7.660      1.518      2.170
 INTER + INTRA:          -8.783
 INTER:                  -8.265
 INTRA:                  -0.518
 UNBOUND:                -0.227
  Name = /scratch/kmzp800/tmp5627zks9/tmpgrona5cs.pdb
  4 active torsions:
  status: ('A' for Active; 'I' for Inactive)
    1  A    between atoms: C3_3  and  O1_4
    2  A    between atoms: O1_4  and  C4_5
    3  A    between atoms: N2_11  and  C9_12
    4  A    between atoms: N4_15  and  C11_16
                            x       y       z     vdW  Elec       q    Type
                         _______ _______ _______ _____ _____    ______ ____

>  <TORSDO>  (25) 
F 2

>  <grid_id>  (25) 
p38-prepared

>  <grid_path>  (25) 
/projects/mai/users/kmzp800_harry/pmx_colab/docking_jobs/p38/vina_docking/input_files/p38_vina.pdbqt

>  <grid_filename>  (25) 
p38_vina.pdbqt

>  <docking_score>  (25) 
-7.66

>  <compound_name>  (25) 
lig_p38a_2v

>  <index_string>  (25) 
25:0:2

$$$$
lig_p38a_2u
     RDKit          3D

 64 68  0  0  1  0  0  0  0  0999 V2000
   34.3730   35.6510   21.1910 C   0  0  0  0  0  0  0  0  0  0  0  0
   35.3240   36.4540   21.8280 C   0  0  0  0  0  0  0  0  0  0  0  0
   35.1500   36.8160   23.1560 C   0  0  0  0  0  0  0  0  0  0  0  0
   36.0850   37.6120   23.8140 C   0  0  0  0  0  0  0  0  0  0  0  0
   35.8870   37.9500   25.1130 N   0  0  0  0  0  0  0  0  0  0  0  0
   34.7850   37.5230   25.7890 C   0  0  0  0  0  0  0  0  0  0  0  0
   34.5810   37.8860   27.1560 N   0  0  0  0  0  0  0  0  0  0  0  0
   33.8620   36.7500   25.1590 N   0  0  0  0  0  0  0  0  0  0  0  0
   34.0130   36.3800   23.8570 C   0  0  0  0  0  0  0  0  0  0  0  0
   33.0740   35.5960   23.2270 N   0  0  0  0  0  0  0  0  0  0  0  0
   33.2430   35.2350   21.9130 C   0  0  0  0  0  0  0  0  0  0  0  0
   32.3790   34.5190   21.3350 O   0  0  0  0  0  0  0  0  0  0  0  0
   35.5330   38.6840   27.9130 C   0  0  0  0  0  0  0  0  0  0  0  0
   35.5580   38.2300   29.3740 C   0  0  0  0  0  0  0  0  0  0  0  0
   36.3870   39.2220   30.1880 C   0  0  0  0  0  0  0  0  0  0  0  0
   35.8150   40.5050   30.1080 O   0  0  0  0  0  0  0  0  0  0  0  0
   36.0180   40.9600   28.7920 C   0  0  0  0  0  0  0  0  0  0  0  0
   35.1480   40.1580   27.8230 C   0  0  0  0  0  0  0  0  0  0  0  0
   31.8740   35.1160   23.9300 C   0  0  0  0  0  0  0  0  0  0  0  0
   32.1430   33.8220   24.7120 C   0  0  0  0  0  0  0  0  0  0  0  0
   32.0950   34.0690   26.2180 C   0  0  0  0  0  0  0  0  0  0  0  0
   30.7940   34.6020   26.6510 N   0  0  0  0  0  0  0  0  0  0  0  0
   30.2080   35.6000   25.7330 C   0  0  0  0  0  0  0  0  0  0  0  0
   31.2220   36.2180   24.7700 C   0  0  0  0  0  0  0  0  0  0  0  0
   31.0280   35.3700   28.1910 S   0  0  0  0  0  6  0  0  0  0  0  0
   30.1880   34.6820   29.2300 O   0  0  0  0  0  0  0  0  0  0  0  0
   30.6320   36.8190   28.1120 O   0  0  0  0  0  0  0  0  0  0  0  0
   32.7370   35.2560   28.6690 C   0  0  0  0  0  0  0  0  0  0  0  0
   34.4960   35.2730   19.8420 O   0  0  0  0  0  0  0  0  0  0  0  0
   37.9050   36.0760   18.5450 C   0  0  0  0  0  0  0  0  0  0  0  0
   36.8660   35.8180   19.4420 C   0  0  0  0  0  0  0  0  0  0  0  0
   35.5660   35.5550   18.9750 C   0  0  0  0  0  0  0  0  0  0  0  0
   35.3300   35.5410   17.5920 C   0  0  0  0  0  0  0  0  0  0  0  0
   34.0890   35.2790   17.1150 F   0  0  0  0  0  0  0  0  0  0  0  0
   36.3710   35.8000   16.6940 C   0  0  0  0  0  0  0  0  0  0  0  0
   37.6570   36.0690   17.1700 C   0  0  0  0  0  0  0  0  0  0  0  0
   38.6630   36.3190   16.2980 F   0  0  0  0  0  0  0  0  0  0  0  0
   36.2107   36.7989   21.2759 H   0  0  0  0  0  0  0  0  0  0  0  0
   36.9808   37.9653   23.2822 H   0  0  0  0  0  0  0  0  0  0  0  0
   33.7215   37.5684   27.6263 H   0  0  0  0  0  0  0  0  0  0  0  0
   36.5388   38.5478   27.4889 H   0  0  0  0  0  0  0  0  0  0  0  0
   34.5314   38.1967   29.7676 H   0  0  0  0  0  0  0  0  0  0  0  0
   36.0038   37.2268   29.4443 H   0  0  0  0  0  0  0  0  0  0  0  0
   36.4126   38.8993   31.2393 H   0  0  0  0  0  0  0  0  0  0  0  0
   37.4095   39.2561   29.7838 H   0  0  0  0  0  0  0  0  0  0  0  0
   35.7482   42.0245   28.7286 H   0  0  0  0  0  0  0  0  0  0  0  0
   37.0762   40.8275   28.5226 H   0  0  0  0  0  0  0  0  0  0  0  0
   35.3096   40.5194   26.7967 H   0  0  0  0  0  0  0  0  0  0  0  0
   34.0872   40.2818   28.0865 H   0  0  0  0  0  0  0  0  0  0  0  0
   31.1295   34.8482   23.1658 H   0  0  0  0  0  0  0  0  0  0  0  0
   31.3795   33.0762   24.4459 H   0  0  0  0  0  0  0  0  0  0  0  0
   33.1474   33.4580   24.4498 H   0  0  0  0  0  0  0  0  0  0  0  0
   32.2798   33.1182   26.7393 H   0  0  0  0  0  0  0  0  0  0  0  0
   32.8650   34.8153   26.4632 H   0  0  0  0  0  0  0  0  0  0  0  0
   29.4218   35.1083   25.1413 H   0  0  0  0  0  0  0  0  0  0  0  0
   29.8150   36.4178   26.3550 H   0  0  0  0  0  0  0  0  0  0  0  0
   31.9969   36.7466   25.3446 H   0  0  0  0  0  0  0  0  0  0  0  0
   30.7074   36.9269   24.1047 H   0  0  0  0  0  0  0  0  0  0  0  0
   32.8112   35.2510   29.7665 H   0  0  0  0  0  0  0  0  0  0  0  0
   33.1687   34.3271   28.2681 H   0  0  0  0  0  0  0  0  0  0  0  0
   33.2882   36.1194   28.2681 H   0  0  0  0  0  0  0  0  0  0  0  0
   38.9176   36.2845   18.9207 H   0  0  0  0  0  0  0  0  0  0  0  0
   37.0665   35.8206   20.5236 H   0  0  0  0  0  0  0  0  0  0  0  0
   36.1769   35.7919   15.6113 H   0  0  0  0  0  0  0  0  0  0  0  0
  1  2  2  0
  1 11  1  0
  1 29  1  0
  2  3  1  0
  3  4  2  0
  3  9  1  0
  4  5  1  0
  5  6  2  0
  6  7  1  0
  6  8  1  0
  7 13  1  0
  8  9  2  0
  9 10  1  0
 10 19  1  0
 10 11  1  0
 11 12  2  0
 13 14  1  0
 13 18  1  0
 14 15  1  0
 15 16  1  0
 16 17  1  0
 17 18  1  0
 19 20  1  0
 19 24  1  0
 20 21  1  0
 21 22  1  0
 22 25  1  0
 22 23  1  0
 23 24  1  0
 25 28  1  0
 25 26  2  0
 25 27  2  0
 29 32  1  0
 30 31  2  0
 30 36  1  0
 31 32  1  0
 32 33  2  0
 33 34  1  0
 33 35  1  0
 35 36  2  0
 36 37  1  0
  2 38  1  0
  4 39  1  0
  7 40  1  0
 13 41  1  0
 14 42  1  0
 14 43  1  0
 15 44  1  0
 15 45  1  0
 17 46  1  0
 17 47  1  0
 18 48  1  0
 18 49  1  0
 19 50  1  0
 20 51  1  0
 20 52  1  0
 21 53  1  0
 21 54  1  0
 23 55  1  0
 23 56  1  0
 24 57  1  0
 24 58  1  0
 28 59  1  0
 28 60  1  0
 28 61  1  0
 30 62  1  0
 31 63  1  0
 35 64  1  0
M  END
>  <s_m_entry_id>  (26) 
75

>  <MODEL>  (26) 
1

>  <REMARK>  (26) 
 VINA RESULT:    -8.976      0.000      0.000
 INTER + INTRA:         -11.471
 INTER:                 -11.453
 INTRA:                  -0.018
 UNBOUND:                 0.128
  Name = /scratch/kmzp800/tmp_37hbdfp/tmp03hizvki.pdb
  6 active torsions:
  status: ('A' for Active; 'I' for Inactive)
    1  A    between atoms: C3_3  and  O1_4
    2  A    between atoms: O1_4  and  C4_5
    3  A    between atoms: N2_11  and  C9_12
    4  A    between atoms: N4_20  and  C15_21
    5  A    between atoms: N5_24  and  S1_25
    6  A    between atoms: S1_25  and  C18_28
                            x       y       z     vdW  Elec       q    Type
                         _______ _______ _______ _____ _____    ______ ____

>  <TORSDO>  (26) 
F 5

>  <grid_id>  (26) 
p38-prepared

>  <grid_path>  (26) 
/projects/mai/users/kmzp800_harry/pmx_colab/docking_jobs/p38/vina_docking/input_files/p38_vina.pdbqt

>  <grid_filename>  (26) 
p38_vina.pdbqt

>  <docking_score>  (26) 
-8.976

>  <compound_name>  (26) 
lig_p38a_2u

>  <index_string>  (26) 
26:0:0

$$$$
lig_p38a_2p
     RDKit          3D

 58 61  0  0  1  0  0  0  0  0999 V2000
   33.3880   36.0260   20.6520 C   0  0  0  0  0  0  0  0  0  0  0  0
   33.7670   37.2220   21.2710 C   0  0  0  0  0  0  0  0  0  0  0  0
   33.3670   37.4880   22.5750 C   0  0  0  0  0  0  0  0  0  0  0  0
   33.7370   38.6650   23.2180 C   0  0  0  0  0  0  0  0  0  0  0  0
   33.3310   38.8920   24.4940 N   0  0  0  0  0  0  0  0  0  0  0  0
   32.5620   37.9840   25.1580 C   0  0  0  0  0  0  0  0  0  0  0  0
   32.1440   38.2260   26.5020 N   0  0  0  0  0  0  0  0  0  0  0  0
   32.1900   36.8330   24.5420 N   0  0  0  0  0  0  0  0  0  0  0  0
   32.5770   36.5550   23.2660 C   0  0  0  0  0  0  0  0  0  0  0  0
   32.2090   35.3840   22.6580 N   0  0  0  0  0  0  0  0  0  0  0  0
   32.5950   35.1140   21.3680 C   0  0  0  0  0  0  0  0  0  0  0  0
   32.2400   34.0380   20.8110 O   0  0  0  0  0  0  0  0  0  0  0  0
   32.5690   39.3920   27.2680 C   0  0  0  0  0  0  0  0  0  0  0  0
   31.8430   39.4170   28.6160 C   0  0  0  0  0  0  0  0  0  0  0  0
   32.4390   38.3610   29.5510 C   0  0  0  0  0  0  0  0  0  0  0  0
   33.8100   38.6140   29.7460 O   0  0  0  0  0  0  0  0  0  0  0  0
   34.4510   38.3180   28.5300 C   0  0  0  0  0  0  0  0  0  0  0  0
   34.0870   39.3690   27.4790 C   0  0  0  0  0  0  0  0  0  0  0  0
   33.7500   35.7190   19.3280 O   0  0  0  0  0  0  0  0  0  0  0  0
   36.5540   35.8860   16.8660 C   0  0  0  0  0  0  0  0  0  0  0  0
   35.2560   35.8180   17.3810 C   0  0  0  0  0  0  0  0  0  0  0  0
   35.0380   35.7680   18.7680 C   0  0  0  0  0  0  0  0  0  0  0  0
   36.1440   35.7990   19.6310 C   0  0  0  0  0  0  0  0  0  0  0  0
   35.9620   35.7620   20.9740 F   0  0  0  0  0  0  0  0  0  0  0  0
   37.4420   35.8650   19.1160 C   0  0  0  0  0  0  0  0  0  0  0  0
   37.6470   35.9070   17.7340 C   0  0  0  0  0  0  0  0  0  0  0  0
   38.9050   35.9710   17.2370 F   0  0  0  0  0  0  0  0  0  0  0  0
   31.4030   34.4060   23.3940 C   0  0  0  0  0  0  0  0  0  0  0  0
   32.2930   33.3950   24.1090 C   0  0  0  0  0  0  0  0  0  0  0  0
   31.9570   33.3080   25.5900 C   0  0  0  0  0  0  0  0  0  0  0  0
   33.3280   33.8460   26.5970 S   0  0  0  0  0  6  0  0  0  0  0  0
   33.9660   32.6540   27.2540 O   0  0  0  0  0  0  0  0  0  0  0  0
   34.3390   34.5270   25.7190 O   0  0  0  0  0  0  0  0  0  0  0  0
   32.7910   34.9890   27.8500 C   0  0  0  0  0  0  0  0  0  0  0  0
   34.3821   37.9524   20.7251 H   0  0  0  0  0  0  0  0  0  0  0  0
   34.3560   39.4088   22.6949 H   0  0  0  0  0  0  0  0  0  0  0  0
   31.5137   37.5461   26.9507 H   0  0  0  0  0  0  0  0  0  0  0  0
   32.3126   40.3022   26.7061 H   0  0  0  0  0  0  0  0  0  0  0  0
   31.9549   40.4119   29.0717 H   0  0  0  0  0  0  0  0  0  0  0  0
   30.7770   39.1977   28.4563 H   0  0  0  0  0  0  0  0  0  0  0  0
   31.9198   38.3970   30.5201 H   0  0  0  0  0  0  0  0  0  0  0  0
   32.3146   37.3656   29.0998 H   0  0  0  0  0  0  0  0  0  0  0  0
   35.5403   38.3173   28.6828 H   0  0  0  0  0  0  0  0  0  0  0  0
   34.1235   37.3279   28.1801 H   0  0  0  0  0  0  0  0  0  0  0  0
   34.5836   39.1220   26.5290 H   0  0  0  0  0  0  0  0  0  0  0  0
   34.4194   40.3585   27.8261 H   0  0  0  0  0  0  0  0  0  0  0  0
   36.7137   35.9229   15.7783 H   0  0  0  0  0  0  0  0  0  0  0  0
   34.3973   35.8035   16.6937 H   0  0  0  0  0  0  0  0  0  0  0  0
   38.3036   35.8839   19.7996 H   0  0  0  0  0  0  0  0  0  0  0  0
   30.7875   34.9333   24.1377 H   0  0  0  0  0  0  0  0  0  0  0  0
   30.7641   33.8676   22.6786 H   0  0  0  0  0  0  0  0  0  0  0  0
   32.1496   32.4053   23.6509 H   0  0  0  0  0  0  0  0  0  0  0  0
   33.3381   33.7237   24.0103 H   0  0  0  0  0  0  0  0  0  0  0  0
   31.0865   33.9474   25.7983 H   0  0  0  0  0  0  0  0  0  0  0  0
   31.7360   32.2587   25.8354 H   0  0  0  0  0  0  0  0  0  0  0  0
   32.9909   34.5635   28.8445 H   0  0  0  0  0  0  0  0  0  0  0  0
   33.3379   35.9371   27.7402 H   0  0  0  0  0  0  0  0  0  0  0  0
   31.7121   35.1732   27.7402 H   0  0  0  0  0  0  0  0  0  0  0  0
  1  2  2  0
  1 11  1  0
  1 19  1  0
  2  3  1  0
  3  4  2  0
  3  9  1  0
  4  5  1  0
  5  6  2  0
  6  7  1  0
  6  8  1  0
  7 13  1  0
  8  9  2  0
  9 10  1  0
 10 28  1  0
 10 11  1  0
 11 12  2  0
 13 18  1  0
 13 14  1  0
 14 15  1  0
 15 16  1  0
 16 17  1  0
 17 18  1  0
 19 22  1  0
 20 21  2  0
 20 26  1  0
 21 22  1  0
 22 23  2  0
 23 24  1  0
 23 25  1  0
 25 26  2  0
 26 27  1  0
 28 29  1  0
 29 30  1  0
 30 31  1  0
 31 32  2  0
 31 34  1  0
 31 33  2  0
  2 35  1  0
  4 36  1  0
  7 37  1  0
 13 38  1  0
 14 39  1  0
 14 40  1  0
 15 41  1  0
 15 42  1  0
 17 43  1  0
 17 44  1  0
 18 45  1  0
 18 46  1  0
 20 47  1  0
 21 48  1  0
 25 49  1  0
 28 50  1  0
 28 51  1  0
 29 52  1  0
 29 53  1  0
 30 54  1  0
 30 55  1  0
 34 56  1  0
 34 57  1  0
 34 58  1  0
M  END
>  <s_m_entry_id>  (27) 
76

>  <MODEL>  (27) 
14

>  <REMARK>  (27) 
 VINA RESULT:   -11.949      2.122      2.543
 INTER + INTRA:         -10.504
 INTER:                 -10.347
 INTRA:                  -0.157
 UNBOUND:                 6.335
  Name = /scratch/kmzp800/tmpvy_qp63g/tmp34ghq0st.pdb
  8 active torsions:
  status: ('A' for Active; 'I' for Inactive)
    1  A    between atoms: C3_3  and  O1_4
    2  A    between atoms: O1_4  and  C4_5
    3  A    between atoms: N2_11  and  C9_12
    4  A    between atoms: N4_20  and  C15_21
    5  A    between atoms: C15_21  and  C16_22
    6  A    between atoms: C16_22  and  C17_23
    7  A    between atoms: C17_23  and  S1_24
    8  A    between atoms: S1_24  and  C18_27
                            x       y       z     vdW  Elec       q    Type
                         _______ _______ _______ _____ _____    ______ ____

>  <TORSDO>  (27) 
F 7

>  <grid_id>  (27) 
p38-prepared

>  <grid_path>  (27) 
/projects/mai/users/kmzp800_harry/pmx_colab/docking_jobs/p38/vina_docking/input_files/p38_vina.pdbqt

>  <grid_filename>  (27) 
p38_vina.pdbqt

>  <docking_score>  (27) 
-11.949

>  <compound_name>  (27) 
lig_p38a_2p

>  <index_string>  (27) 
27:0:13

$$$$
lig_p38a_2g
     RDKit          3D

 46 49  0  0  1  0  0  0  0  0999 V2000
   33.8920   35.4800   19.3990 C   0  0  0  0  0  0  0  0  0  0  0  0
   33.7230   36.6840   20.0920 C   0  0  0  0  0  0  0  0  0  0  0  0
   33.2990   36.6660   21.4150 C   0  0  0  0  0  0  0  0  0  0  0  0
   33.1280   37.8450   22.1340 C   0  0  0  0  0  0  0  0  0  0  0  0
   32.7140   37.7910   23.4260 N   0  0  0  0  0  0  0  0  0  0  0  0
   32.4600   36.6000   24.0360 C   0  0  0  0  0  0  0  0  0  0  0  0
   32.0230   36.5530   25.3990 N   0  0  0  0  0  0  0  0  0  0  0  0
   32.6220   35.4400   23.3470 N   0  0  0  0  0  0  0  0  0  0  0  0
   33.0360   35.4390   22.0480 C   0  0  0  0  0  0  0  0  0  0  0  0
   33.1930   34.2670   21.3590 N   0  0  0  0  0  0  0  0  0  0  0  0
   32.9130   32.9950   22.0210 C   0  0  0  0  0  0  0  0  0  0  0  0
   33.6110   34.2700   20.0530 C   0  0  0  0  0  0  0  0  0  0  0  0
   33.7480   33.1850   19.4250 O   0  0  0  0  0  0  0  0  0  0  0  0
   31.8120   37.7240   26.2460 C   0  0  0  0  0  0  0  0  0  0  0  0
   33.1360   38.4300   26.5470 C   0  0  0  0  0  0  0  0  0  0  0  0
   32.8910   39.5250   27.5840 C   0  0  0  0  0  0  0  0  0  0  0  0
   32.3640   38.9600   28.7610 O   0  0  0  0  0  0  0  0  0  0  0  0
   31.0500   38.5580   28.4630 C   0  0  0  0  0  0  0  0  0  0  0  0
   31.0730   37.3470   27.5300 C   0  0  0  0  0  0  0  0  0  0  0  0
   34.2960   35.4610   18.0550 O   0  0  0  0  0  0  0  0  0  0  0  0
   38.2090   36.0290   16.6190 C   0  0  0  0  0  0  0  0  0  0  0  0
   37.1320   35.9310   15.7350 C   0  0  0  0  0  0  0  0  0  0  0  0
   35.8380   35.7420   16.2280 C   0  0  0  0  0  0  0  0  0  0  0  0
   35.6090   35.6620   17.6060 C   0  0  0  0  0  0  0  0  0  0  0  0
   36.7020   35.7400   18.4940 C   0  0  0  0  0  0  0  0  0  0  0  0
   36.5300   35.5810   19.8290 F   0  0  0  0  0  0  0  0  0  0  0  0
   37.9950   35.9280   17.9950 C   0  0  0  0  0  0  0  0  0  0  0  0
   33.9253   37.6420   19.5907 H   0  0  0  0  0  0  0  0  0  0  0  0
   33.3273   38.8164   21.6578 H   0  0  0  0  0  0  0  0  0  0  0  0
   31.8446   35.6264   25.8118 H   0  0  0  0  0  0  0  0  0  0  0  0
   32.9438   33.1347   23.1117 H   0  0  0  0  0  0  0  0  0  0  0  0
   31.9151   32.6394   21.7249 H   0  0  0  0  0  0  0  0  0  0  0  0
   33.6694   32.2532   21.7249 H   0  0  0  0  0  0  0  0  0  0  0  0
   31.1767   38.4328   25.6946 H   0  0  0  0  0  0  0  0  0  0  0  0
   33.8602   37.7027   26.9426 H   0  0  0  0  0  0  0  0  0  0  0  0
   33.5382   38.8747   25.6248 H   0  0  0  0  0  0  0  0  0  0  0  0
   33.8415   40.0283   27.8147 H   0  0  0  0  0  0  0  0  0  0  0  0
   32.1735   40.2538   27.1790 H   0  0  0  0  0  0  0  0  0  0  0  0
   30.5307   38.2901   29.3950 H   0  0  0  0  0  0  0  0  0  0  0  0
   30.5225   39.3862   27.9671 H   0  0  0  0  0  0  0  0  0  0  0  0
   30.0425   37.0476   27.2884 H   0  0  0  0  0  0  0  0  0  0  0  0
   31.5860   36.5076   28.0221 H   0  0  0  0  0  0  0  0  0  0  0  0
   39.2262   36.1858   16.2309 H   0  0  0  0  0  0  0  0  0  0  0  0
   37.3023   36.0026   14.6506 H   0  0  0  0  0  0  0  0  0  0  0  0
   34.9939   35.6556   15.5280 H   0  0  0  0  0  0  0  0  0  0  0  0
   38.8459   35.9965   18.6887 H   0  0  0  0  0  0  0  0  0  0  0  0
  1 12  1  0
  1  2  2  0
  1 20  1  0
  2  3  1  0
  3  9  2  0
  3  4  1  0
  4  5  2  0
  5  6  1  0
  6  7  1  0
  6  8  2  0
  7 14  1  0
  8  9  1  0
  9 10  1  0
 10 11  1  0
 10 12  1  0
 12 13  2  0
 14 15  1  0
 14 19  1  0
 15 16  1  0
 16 17  1  0
 17 18  1  0
 18 19  1  0
 20 24  1  0
 21 27  2  0
 21 22  1  0
 22 23  2  0
 23 24  1  0
 24 25  2  0
 25 26  1  0
 25 27  1  0
  2 28  1  0
  4 29  1  0
  7 30  1  0
 11 31  1  0
 11 32  1  0
 11 33  1  0
 14 34  1  0
 15 35  1  0
 15 36  1  0
 16 37  1  0
 16 38  1  0
 18 39  1  0
 18 40  1  0
 19 41  1  0
 19 42  1  0
 21 43  1  0
 22 44  1  0
 23 45  1  0
 27 46  1  0
M  END
>  <s_m_entry_id>  (28) 
77

>  <MODEL>  (28) 
2

>  <REMARK>  (28) 
 VINA RESULT:    -8.772      1.735      2.150
 INTER + INTRA:          -9.684
 INTER:                  -9.789
 INTRA:                   0.105
 UNBOUND:                 0.626
  Name = /scratch/kmzp800/tmp5_tl570l/tmpgip4k33d.pdb
  4 active torsions:
  status: ('A' for Active; 'I' for Inactive)
    1  A    between atoms: C4_4  and  O1_5
    2  A    between atoms: O1_5  and  C5_6
    3  A    between atoms: N2_12  and  C10_13
    4  A    between atoms: N4_21  and  C16_22
                            x       y       z     vdW  Elec       q    Type
                         _______ _______ _______ _____ _____    ______ ____

>  <TORSDO>  (28) 
F 3

>  <grid_id>  (28) 
p38-prepared

>  <grid_path>  (28) 
/projects/mai/users/kmzp800_harry/pmx_colab/docking_jobs/p38/vina_docking/input_files/p38_vina.pdbqt

>  <grid_filename>  (28) 
p38_vina.pdbqt

>  <docking_score>  (28) 
-8.772

>  <compound_name>  (28) 
lig_p38a_2g

>  <index_string>  (28) 
28:0:1

$$$$
lig_p38a_2o
     RDKit          3D

 55 58  0  0  1  0  0  0  0  0999 V2000
   33.5680   36.0170   20.1100 C   0  0  0  0  0  0  0  0  0  0  0  0
   33.5710   37.4010   20.2670 C   0  0  0  0  0  0  0  0  0  0  0  0
   33.3720   37.9570   21.5240 C   0  0  0  0  0  0  0  0  0  0  0  0
   33.3600   39.3360   21.7090 C   0  0  0  0  0  0  0  0  0  0  0  0
   33.1530   39.8490   22.9500 N   0  0  0  0  0  0  0  0  0  0  0  0
   32.9560   39.0340   24.0210 C   0  0  0  0  0  0  0  0  0  0  0  0
   32.7270   39.6070   25.3110 N   0  0  0  0  0  0  0  0  0  0  0  0
   32.9680   37.6840   23.8570 N   0  0  0  0  0  0  0  0  0  0  0  0
   33.1710   37.1200   22.6340 C   0  0  0  0  0  0  0  0  0  0  0  0
   33.1790   35.7580   22.4800 N   0  0  0  0  0  0  0  0  0  0  0  0
   33.4010   35.1970   21.2470 C   0  0  0  0  0  0  0  0  0  0  0  0
   33.4770   33.9420   21.1280 O   0  0  0  0  0  0  0  0  0  0  0  0
   32.4930   38.7980   26.4970 C   0  0  0  0  0  0  0  0  0  0  0  0
   32.7490   39.6190   27.7680 C   0  0  0  0  0  0  0  0  0  0  0  0
   32.1240   38.9550   29.0050 C   0  0  0  0  0  0  0  0  0  0  0  0
   31.7230   37.6350   28.7340 O   0  0  0  0  0  0  0  0  0  0  0  0
   30.6310   37.7320   27.8530 C   0  0  0  0  0  0  0  0  0  0  0  0
   31.0720   38.2290   26.4670 C   0  0  0  0  0  0  0  0  0  0  0  0
   33.7720   35.4910   18.8260 O   0  0  0  0  0  0  0  0  0  0  0  0
   37.3610   35.9610   18.0980 C   0  0  0  0  0  0  0  0  0  0  0  0
   36.1510   35.8450   18.7840 C   0  0  0  0  0  0  0  0  0  0  0  0
   34.9620   35.5900   18.0910 C   0  0  0  0  0  0  0  0  0  0  0  0
   34.9930   35.4820   16.6850 C   0  0  0  0  0  0  0  0  0  0  0  0
   33.8560   35.3040   15.9690 F   0  0  0  0  0  0  0  0  0  0  0  0
   36.2080   35.5990   16.0020 C   0  0  0  0  0  0  0  0  0  0  0  0
   37.3920   35.8310   16.7070 C   0  0  0  0  0  0  0  0  0  0  0  0
   38.5660   35.9420   16.0420 F   0  0  0  0  0  0  0  0  0  0  0  0
   32.9840   34.9000   23.6510 C   0  0  0  0  0  0  0  0  0  0  0  0
   31.5060   34.7870   24.0180 C   0  0  0  0  0  0  0  0  0  0  0  0
   30.7820   33.2730   23.4100 S   0  0  0  0  0  6  0  0  0  0  0  0
   30.1240   33.5460   22.0870 O   0  0  0  0  0  0  0  0  0  0  0  0
   31.8490   32.2310   23.2250 O   0  0  0  0  0  0  0  0  0  0  0  0
   29.5550   32.6760   24.5490 C   0  0  0  0  0  0  0  0  0  0  0  0
   33.7309   38.0533   19.3958 H   0  0  0  0  0  0  0  0  0  0  0  0
   33.5176   40.0088   20.8532 H   0  0  0  0  0  0  0  0  0  0  0  0
   32.7278   40.6328   25.4040 H   0  0  0  0  0  0  0  0  0  0  0  0
   33.1978   37.9535   26.5049 H   0  0  0  0  0  0  0  0  0  0  0  0
   33.8344   39.7101   27.9217 H   0  0  0  0  0  0  0  0  0  0  0  0
   32.2866   40.6085   27.6377 H   0  0  0  0  0  0  0  0  0  0  0  0
   32.8654   38.9437   29.8175 H   0  0  0  0  0  0  0  0  0  0  0  0
   31.2343   39.5334   29.2947 H   0  0  0  0  0  0  0  0  0  0  0  0
   30.1674   36.7401   27.7469 H   0  0  0  0  0  0  0  0  0  0  0  0
   29.9138   38.4552   28.2684 H   0  0  0  0  0  0  0  0  0  0  0  0
   30.3796   39.0158   26.1332 H   0  0  0  0  0  0  0  0  0  0  0  0
   31.0588   37.3739   25.7751 H   0  0  0  0  0  0  0  0  0  0  0  0
   38.2909   36.1549   18.6527 H   0  0  0  0  0  0  0  0  0  0  0  0
   36.1317   35.9549   19.8783 H   0  0  0  0  0  0  0  0  0  0  0  0
   36.2316   35.5081   14.9060 H   0  0  0  0  0  0  0  0  0  0  0  0
   33.3755   33.8963   23.4287 H   0  0  0  0  0  0  0  0  0  0  0  0
   33.5190   35.3476   24.5015 H   0  0  0  0  0  0  0  0  0  0  0  0
   31.4088   34.8127   25.1134 H   0  0  0  0  0  0  0  0  0  0  0  0
   30.9741   35.6298   23.5524 H   0  0  0  0  0  0  0  0  0  0  0  0
   29.8995   32.8436   25.5801 H   0  0  0  0  0  0  0  0  0  0  0  0
   28.6101   33.2151   24.3859 H   0  0  0  0  0  0  0  0  0  0  0  0
   29.3960   31.5998   24.3859 H   0  0  0  0  0  0  0  0  0  0  0  0
  1  2  2  0
  1 11  1  0
  1 19  1  0
  2  3  1  0
  3  4  2  0
  3  9  1  0
  4  5  1  0
  5  6  2  0
  6  7  1  0
  6  8  1  0
  7 13  1  0
  8  9  2  0
  9 10  1  0
 10 28  1  0
 10 11  1  0
 11 12  2  0
 13 14  1  0
 13 18  1  0
 14 15  1  0
 15 16  1  0
 16 17  1  0
 17 18  1  0
 19 22  1  0
 20 21  2  0
 20 26  1  0
 21 22  1  0
 22 23  2  0
 23 24  1  0
 23 25  1  0
 25 26  2  0
 26 27  1  0
 28 29  1  0
 29 30  1  0
 30 33  1  0
 30 31  2  0
 30 32  2  0
  2 34  1  0
  4 35  1  0
  7 36  1  0
 13 37  1  0
 14 38  1  0
 14 39  1  0
 15 40  1  0
 15 41  1  0
 17 42  1  0
 17 43  1  0
 18 44  1  0
 18 45  1  0
 20 46  1  0
 21 47  1  0
 25 48  1  0
 28 49  1  0
 28 50  1  0
 29 51  1  0
 29 52  1  0
 33 53  1  0
 33 54  1  0
 33 55  1  0
M  END
>  <s_m_entry_id>  (29) 
78

>  <MODEL>  (29) 
1

>  <REMARK>  (29) 
 VINA RESULT:   -10.764      0.000      0.000
 INTER + INTRA:         -12.690
 INTER:                 -11.865
 INTRA:                  -0.825
 UNBOUND:                 1.850
  Name = /scratch/kmzp800/tmp73dn64g7/tmpjtm2n1bp.pdb
  7 active torsions:
  status: ('A' for Active; 'I' for Inactive)
    1  A    between atoms: C3_3  and  O1_4
    2  A    between atoms: O1_4  and  C4_5
    3  A    between atoms: N2_11  and  C9_12
    4  A    between atoms: N4_20  and  C15_21
    5  A    between atoms: C15_21  and  C16_22
    6  A    between atoms: C16_22  and  S1_23
    7  A    between atoms: S1_23  and  C17_26
                            x       y       z     vdW  Elec       q    Type
                         _______ _______ _______ _____ _____    ______ ____

>  <TORSDO>  (29) 
F 6

>  <grid_id>  (29) 
p38-prepared

>  <grid_path>  (29) 
/projects/mai/users/kmzp800_harry/pmx_colab/docking_jobs/p38/vina_docking/input_files/p38_vina.pdbqt

>  <grid_filename>  (29) 
p38_vina.pdbqt

>  <docking_score>  (29) 
-10.764

>  <compound_name>  (29) 
lig_p38a_2o

>  <index_string>  (29) 
29:0:0

$$$$
lig_p38a_2f
     RDKit          3D

 46 49  0  0  1  0  0  0  0  0999 V2000
   34.4160   36.2370   20.1710 C   0  0  0  0  0  0  0  0  0  0  0  0
   34.1960   37.5890   20.4280 C   0  0  0  0  0  0  0  0  0  0  0  0
   34.2680   38.0660   21.7310 C   0  0  0  0  0  0  0  0  0  0  0  0
   34.0650   39.4130   22.0180 C   0  0  0  0  0  0  0  0  0  0  0  0
   34.1480   39.8490   23.3010 N   0  0  0  0  0  0  0  0  0  0  0  0
   34.4290   38.9900   24.3170 C   0  0  0  0  0  0  0  0  0  0  0  0
   34.5080   39.4850   25.6550 N   0  0  0  0  0  0  0  0  0  0  0  0
   34.6280   37.6700   24.0550 N   0  0  0  0  0  0  0  0  0  0  0  0
   34.5560   37.1830   22.7850 C   0  0  0  0  0  0  0  0  0  0  0  0
   34.7500   35.8520   22.5280 N   0  0  0  0  0  0  0  0  0  0  0  0
   35.0310   34.9370   23.6310 C   0  0  0  0  0  0  0  0  0  0  0  0
   34.6720   35.3640   21.2490 C   0  0  0  0  0  0  0  0  0  0  0  0
   34.8010   34.1270   21.0350 O   0  0  0  0  0  0  0  0  0  0  0  0
   34.8310   38.6370   26.7950 C   0  0  0  0  0  0  0  0  0  0  0  0
   33.5380   38.0550   27.3820 C   0  0  0  0  0  0  0  0  0  0  0  0
   32.8870   38.9890   28.4140 C   0  0  0  0  0  0  0  0  0  0  0  0
   33.4080   40.2900   28.3250 O   0  0  0  0  0  0  0  0  0  0  0  0
   34.7250   40.2080   28.8100 C   0  0  0  0  0  0  0  0  0  0  0  0
   35.6310   39.4350   27.8380 C   0  0  0  0  0  0  0  0  0  0  0  0
   34.3310   35.7870   18.8450 O   0  0  0  0  0  0  0  0  0  0  0  0
   36.2820   35.5340   15.6820 C   0  0  0  0  0  0  0  0  0  0  0  0
   37.5780   35.7100   16.1730 C   0  0  0  0  0  0  0  0  0  0  0  0
   37.7870   35.9120   17.5400 C   0  0  0  0  0  0  0  0  0  0  0  0
   39.0440   36.0770   18.0160 F   0  0  0  0  0  0  0  0  0  0  0  0
   36.6990   35.9400   18.4180 C   0  0  0  0  0  0  0  0  0  0  0  0
   35.3960   35.7750   17.9340 C   0  0  0  0  0  0  0  0  0  0  0  0
   35.1930   35.5630   16.5600 C   0  0  0  0  0  0  0  0  0  0  0  0
   33.9659   38.2769   19.6011 H   0  0  0  0  0  0  0  0  0  0  0  0
   33.8381   40.1217   21.2079 H   0  0  0  0  0  0  0  0  0  0  0  0
   34.3287   40.4856   25.8210 H   0  0  0  0  0  0  0  0  0  0  0  0
   34.8716   35.4560   24.5877 H   0  0  0  0  0  0  0  0  0  0  0  0
   34.3580   34.0692   23.5681 H   0  0  0  0  0  0  0  0  0  0  0  0
   36.0751   34.5966   23.5681 H   0  0  0  0  0  0  0  0  0  0  0  0
   35.4638   37.7975   26.4712 H   0  0  0  0  0  0  0  0  0  0  0  0
   32.8247   37.8832   26.5624 H   0  0  0  0  0  0  0  0  0  0  0  0
   33.7970   37.1178   27.8963 H   0  0  0  0  0  0  0  0  0  0  0  0
   31.8027   39.0240   28.2319 H   0  0  0  0  0  0  0  0  0  0  0  0
   33.1003   38.5977   29.4197 H   0  0  0  0  0  0  0  0  0  0  0  0
   35.1233   41.2252   28.9390 H   0  0  0  0  0  0  0  0  0  0  0  0
   34.7086   39.6718   29.7703 H   0  0  0  0  0  0  0  0  0  0  0  0
   36.2529   38.7356   28.4161 H   0  0  0  0  0  0  0  0  0  0  0  0
   36.2449   40.1703   27.2971 H   0  0  0  0  0  0  0  0  0  0  0  0
   36.1179   35.3728   14.6063 H   0  0  0  0  0  0  0  0  0  0  0  0
   38.4346   35.6896   15.4832 H   0  0  0  0  0  0  0  0  0  0  0  0
   36.8679   36.0924   19.4942 H   0  0  0  0  0  0  0  0  0  0  0  0
   34.1735   35.4192   16.1729 H   0  0  0  0  0  0  0  0  0  0  0  0
  1  2  2  0
  1 12  1  0
  1 20  1  0
  2  3  1  0
  3  4  2  0
  3  9  1  0
  4  5  1  0
  5  6  2  0
  6  7  1  0
  6  8  1  0
  7 14  1  0
  8  9  2  0
  9 10  1  0
 10 11  1  0
 10 12  1  0
 12 13  2  0
 14 15  1  0
 14 19  1  0
 15 16  1  0
 16 17  1  0
 17 18  1  0
 18 19  1  0
 20 26  1  0
 21 22  2  0
 21 27  1  0
 22 23  1  0
 23 24  1  0
 23 25  2  0
 25 26  1  0
 26 27  2  0
  2 28  1  0
  4 29  1  0
  7 30  1  0
 11 31  1  0
 11 32  1  0
 11 33  1  0
 14 34  1  0
 15 35  1  0
 15 36  1  0
 16 37  1  0
 16 38  1  0
 18 39  1  0
 18 40  1  0
 19 41  1  0
 19 42  1  0
 21 43  1  0
 22 44  1  0
 25 45  1  0
 27 46  1  0
M  END
>  <s_m_entry_id>  (30) 
79

>  <MODEL>  (30) 
1

>  <REMARK>  (30) 
 VINA RESULT:    -8.900      0.000      0.000
 INTER + INTRA:         -10.772
 INTER:                 -10.178
 INTRA:                  -0.594
 UNBOUND:                -0.311
  Name = /scratch/kmzp800/tmpd6bkhvlk/tmpizb4h_t8.pdb
  4 active torsions:
  status: ('A' for Active; 'I' for Inactive)
    1  A    between atoms: C5_6  and  O1_7
    2  A    between atoms: O1_7  and  C6_8
    3  A    between atoms: N2_14  and  C11_15
    4  A    between atoms: N4_23  and  C17_24
                            x       y       z     vdW  Elec       q    Type
                         _______ _______ _______ _____ _____    ______ ____

>  <TORSDO>  (30) 
F 3

>  <grid_id>  (30) 
p38-prepared

>  <grid_path>  (30) 
/projects/mai/users/kmzp800_harry/pmx_colab/docking_jobs/p38/vina_docking/input_files/p38_vina.pdbqt

>  <grid_filename>  (30) 
p38_vina.pdbqt

>  <docking_score>  (30) 
-8.9

>  <compound_name>  (30) 
lig_p38a_2f

>  <index_string>  (30) 
30:0:0

$$$$
lig_p38a_2c
     RDKit          3D

 45 48  0  0  1  0  0  0  0  0999 V2000
   35.4180   36.5090   19.8210 C   0  0  0  0  0  0  0  0  0  0  0  0
   35.2310   37.8680   20.0840 C   0  0  0  0  0  0  0  0  0  0  0  0
   34.6640   38.2730   21.2860 C   0  0  0  0  0  0  0  0  0  0  0  0
   34.4610   39.6200   21.5700 C   0  0  0  0  0  0  0  0  0  0  0  0
   33.9050   39.9830   22.7550 N   0  0  0  0  0  0  0  0  0  0  0  0
   33.5410   39.0490   23.6750 C   0  0  0  0  0  0  0  0  0  0  0  0
   32.9570   39.4690   24.9130 N   0  0  0  0  0  0  0  0  0  0  0  0
   33.7330   37.7270   23.4120 N   0  0  0  0  0  0  0  0  0  0  0  0
   34.2860   37.3120   22.2380 C   0  0  0  0  0  0  0  0  0  0  0  0
   34.4770   35.9810   21.9810 N   0  0  0  0  0  0  0  0  0  0  0  0
   34.0810   34.9910   22.9790 C   0  0  0  0  0  0  0  0  0  0  0  0
   35.0330   35.5650   20.7990 C   0  0  0  0  0  0  0  0  0  0  0  0
   35.1890   34.3320   20.5750 O   0  0  0  0  0  0  0  0  0  0  0  0
   37.3320   35.3770   16.1500 C   0  0  0  0  0  0  0  0  0  0  0  0
   38.0870   35.8000   17.2450 C   0  0  0  0  0  0  0  0  0  0  0  0
   37.4500   36.1570   18.4360 C   0  0  0  0  0  0  0  0  0  0  0  0
   36.0520   36.0960   18.5470 C   0  0  0  0  0  0  0  0  0  0  0  0
   35.2940   35.6650   17.4340 C   0  0  0  0  0  0  0  0  0  0  0  0
   33.5440   35.4950   17.4950 Cl  0  0  0  0  0  0  0  0  0  0  0  0
   35.9420   35.3080   16.2460 C   0  0  0  0  0  0  0  0  0  0  0  0
   32.5260   38.5650   25.9750 C   0  0  0  0  0  0  0  0  0  0  0  0
   31.1810   37.9190   25.6320 C   0  0  0  0  0  0  0  0  0  0  0  0
   30.6740   37.1460   26.8490 C   0  0  0  0  0  0  0  0  0  0  0  0
   30.5280   38.0180   27.9440 O   0  0  0  0  0  0  0  0  0  0  0  0
   31.8260   38.3680   28.3570 C   0  0  0  0  0  0  0  0  0  0  0  0
   32.4720   39.2880   27.3220 C   0  0  0  0  0  0  0  0  0  0  0  0
   35.5330   38.6185   19.3386 H   0  0  0  0  0  0  0  0  0  0  0  0
   34.7498   40.3881   20.8375 H   0  0  0  0  0  0  0  0  0  0  0  0
   32.8322   40.4801   25.0649 H   0  0  0  0  0  0  0  0  0  0  0  0
   34.2448   35.4005   23.9867 H   0  0  0  0  0  0  0  0  0  0  0  0
   33.0161   34.7470   22.8510 H   0  0  0  0  0  0  0  0  0  0  0  0
   34.6839   34.0799   22.8510 H   0  0  0  0  0  0  0  0  0  0  0  0
   37.8330   35.0980   15.2113 H   0  0  0  0  0  0  0  0  0  0  0  0
   39.1832   35.8523   17.1703 H   0  0  0  0  0  0  0  0  0  0  0  0
   38.0502   36.4894   19.2958 H   0  0  0  0  0  0  0  0  0  0  0  0
   35.3510   34.9706   15.3818 H   0  0  0  0  0  0  0  0  0  0  0  0
   33.2699   37.7592   26.0604 H   0  0  0  0  0  0  0  0  0  0  0  0
   30.4549   38.7002   25.3629 H   0  0  0  0  0  0  0  0  0  0  0  0
   31.3053   37.2324   24.7817 H   0  0  0  0  0  0  0  0  0  0  0  0
   29.7007   36.6913   26.6126 H   0  0  0  0  0  0  0  0  0  0  0  0
   31.3992   36.3599   27.1064 H   0  0  0  0  0  0  0  0  0  0  0  0
   31.7727   38.8885   29.3246 H   0  0  0  0  0  0  0  0  0  0  0  0
   32.4318   37.4554   28.4579 H   0  0  0  0  0  0  0  0  0  0  0  0
   33.4921   39.5452   27.6433 H   0  0  0  0  0  0  0  0  0  0  0  0
   31.8800   40.2100   27.2246 H   0  0  0  0  0  0  0  0  0  0  0  0
  1  2  2  0
  1 12  1  0
  1 17  1  0
  2  3  1  0
  3  4  2  0
  3  9  1  0
  4  5  1  0
  5  6  2  0
  6  7  1  0
  6  8  1  0
  7 21  1  0
  8  9  2  0
  9 10  1  0
 10 11  1  0
 10 12  1  0
 12 13  2  0
 14 20  2  0
 14 15  1  0
 15 16  2  0
 16 17  1  0
 17 18  2  0
 18 19  1  0
 18 20  1  0
 21 26  1  0
 21 22  1  0
 22 23  1  0
 23 24  1  0
 24 25  1  0
 25 26  1  0
  2 27  1  0
  4 28  1  0
  7 29  1  0
 11 30  1  0
 11 31  1  0
 11 32  1  0
 14 33  1  0
 15 34  1  0
 16 35  1  0
 20 36  1  0
 21 37  1  0
 22 38  1  0
 22 39  1  0
 23 40  1  0
 23 41  1  0
 25 42  1  0
 25 43  1  0
 26 44  1  0
 26 45  1  0
M  END
>  <s_m_entry_id>  (31) 
80

>  <MODEL>  (31) 
1

>  <REMARK>  (31) 
 VINA RESULT:   -11.293      0.000      0.000
 INTER + INTRA:         -10.384
 INTER:                  -9.785
 INTRA:                  -0.599
 UNBOUND:                 2.229
  Name = /scratch/kmzp800/tmpch0ik75a/tmpah60q55r.pdb
  3 active torsions:
  status: ('A' for Active; 'I' for Inactive)
    1  A    between atoms: C4_4  and  C5_5
    2  A    between atoms: N2_11  and  C10_12
    3  A    between atoms: N4_20  and  C16_21
                            x       y       z     vdW  Elec       q    Type
                         _______ _______ _______ _____ _____    ______ ____

>  <TORSDO>  (31) 
F 2

>  <grid_id>  (31) 
p38-prepared

>  <grid_path>  (31) 
/projects/mai/users/kmzp800_harry/pmx_colab/docking_jobs/p38/vina_docking/input_files/p38_vina.pdbqt

>  <grid_filename>  (31) 
p38_vina.pdbqt

>  <docking_score>  (31) 
-11.293

>  <compound_name>  (31) 
lig_p38a_2c

>  <index_string>  (31) 
31:0:0

$$$$
lig_p38a_2m
     RDKit          3D

 50 54  0  0  1  0  0  0  0  0999 V2000
   35.2090   35.9780   21.1430 C   0  0  0  0  0  0  0  0  0  0  0  0
   35.2650   35.4810   22.4410 C   0  0  0  0  0  0  0  0  0  0  0  0
   34.9460   36.3050   23.5110 C   0  0  0  0  0  0  0  0  0  0  0  0
   35.0150   35.8360   24.8200 C   0  0  0  0  0  0  0  0  0  0  0  0
   34.7150   36.6680   25.8510 N   0  0  0  0  0  0  0  0  0  0  0  0
   34.3500   37.9600   25.6270 C   0  0  0  0  0  0  0  0  0  0  0  0
   34.0390   38.8340   26.7180 N   0  0  0  0  0  0  0  0  0  0  0  0
   34.2750   38.4310   24.3530 N   0  0  0  0  0  0  0  0  0  0  0  0
   34.5580   37.6370   23.2820 C   0  0  0  0  0  0  0  0  0  0  0  0
   34.4790   38.1230   21.9980 N   0  0  0  0  0  0  0  0  0  0  0  0
   34.8550   37.3290   20.9380 C   0  0  0  0  0  0  0  0  0  0  0  0
   34.9140   37.8120   19.7730 O   0  0  0  0  0  0  0  0  0  0  0  0
   34.0770   38.4520   28.1270 C   0  0  0  0  0  0  0  0  0  0  0  0
   35.4110   37.7900   28.4790 C   0  0  0  0  0  0  0  0  0  0  0  0
   35.3300   37.2360   29.9010 C   0  0  0  0  0  0  0  0  0  0  0  0
   34.2850   36.2980   29.9930 O   0  0  0  0  0  0  0  0  0  0  0  0
   33.0830   37.0230   29.9070 C   0  0  0  0  0  0  0  0  0  0  0  0
   32.8930   37.5510   28.4840 C   0  0  0  0  0  0  0  0  0  0  0  0
   34.1070   39.5320   21.7660 C   0  0  0  0  0  0  0  0  0  0  0  0
   33.0250   39.6430   20.6970 C   0  0  0  0  0  0  0  0  0  0  0  0
   32.6520   39.7790   22.1490 C   0  0  0  0  0  0  0  0  0  0  0  0
   35.5570   35.1230   20.0890 O   0  0  0  0  0  0  0  0  0  0  0  0
   38.3260   36.1790   17.8850 C   0  0  0  0  0  0  0  0  0  0  0  0
   37.6020   35.8000   19.0180 C   0  0  0  0  0  0  0  0  0  0  0  0
   36.2370   35.5070   18.9240 C   0  0  0  0  0  0  0  0  0  0  0  0
   35.6040   35.5680   17.6650 C   0  0  0  0  0  0  0  0  0  0  0  0
   34.3010   35.2240   17.5180 F   0  0  0  0  0  0  0  0  0  0  0  0
   36.3340   35.9480   16.5350 C   0  0  0  0  0  0  0  0  0  0  0  0
   37.6900   36.2600   16.6440 C   0  0  0  0  0  0  0  0  0  0  0  0
   38.3920   36.6290   15.5460 F   0  0  0  0  0  0  0  0  0  0  0  0
   35.5616   34.4368   22.6189 H   0  0  0  0  0  0  0  0  0  0  0  0
   35.3114   34.7955   25.0187 H   0  0  0  0  0  0  0  0  0  0  0  0
   33.7690   39.8021   26.4926 H   0  0  0  0  0  0  0  0  0  0  0  0
   33.9904   39.3672   28.7310 H   0  0  0  0  0  0  0  0  0  0  0  0
   35.6133   36.9699   27.7744 H   0  0  0  0  0  0  0  0  0  0  0  0
   36.2224   38.5298   28.4134 H   0  0  0  0  0  0  0  0  0  0  0  0
   36.2818   36.7473   30.1564 H   0  0  0  0  0  0  0  0  0  0  0  0
   35.1359   38.0627   30.6002 H   0  0  0  0  0  0  0  0  0  0  0  0
   32.2409   36.3648   30.1671 H   0  0  0  0  0  0  0  0  0  0  0  0
   33.1217   37.8718   30.6056 H   0  0  0  0  0  0  0  0  0  0  0  0
   31.9588   38.1289   28.4263 H   0  0  0  0  0  0  0  0  0  0  0  0
   32.8396   36.7089   27.7783 H   0  0  0  0  0  0  0  0  0  0  0  0
   35.0706   40.0235   21.9657 H   0  0  0  0  0  0  0  0  0  0  0  0
   32.9933   40.5228   20.0374 H   0  0  0  0  0  0  0  0  0  0  0  0
   32.6876   39.0059   19.8662 H   0  0  0  0  0  0  0  0  0  0  0  0
   32.0723   38.9855   22.6434 H   0  0  0  0  0  0  0  0  0  0  0  0
   32.1257   40.5380   22.7464 H   0  0  0  0  0  0  0  0  0  0  0  0
   39.3973   36.4137   17.9702 H   0  0  0  0  0  0  0  0  0  0  0  0
   38.1090   35.7314   19.9918 H   0  0  0  0  0  0  0  0  0  0  0  0
   35.8372   36.0014   15.5550 H   0  0  0  0  0  0  0  0  0  0  0  0
  1  2  2  0
  1 11  1  0
  1 22  1  0
  2  3  1  0
  3  4  2  0
  3  9  1  0
  4  5  1  0
  5  6  2  0
  6  7  1  0
  6  8  1  0
  7 13  1  0
  8  9  2  0
  9 10  1  0
 10 11  1  0
 10 19  1  0
 11 12  2  0
 13 14  1  0
 13 18  1  0
 14 15  1  0
 15 16  1  0
 16 17  1  0
 17 18  1  0
 19 21  1  0
 19 20  1  0
 20 21  1  0
 22 25  1  0
 23 24  2  0
 23 29  1  0
 24 25  1  0
 25 26  2  0
 26 27  1  0
 26 28  1  0
 28 29  2  0
 29 30  1  0
  2 31  1  0
  4 32  1  0
  7 33  1  0
 13 34  1  0
 14 35  1  0
 14 36  1  0
 15 37  1  0
 15 38  1  0
 17 39  1  0
 17 40  1  0
 18 41  1  0
 18 42  1  0
 19 43  1  0
 20 44  1  0
 20 45  1  0
 21 46  1  0
 21 47  1  0
 23 48  1  0
 24 49  1  0
 28 50  1  0
M  END
>  <s_m_entry_id>  (32) 
81

>  <MODEL>  (32) 
13

>  <REMARK>  (32) 
 VINA RESULT:    -9.064      4.159      9.399
 INTER + INTRA:          -7.775
 INTER:                  -9.579
 INTRA:                   1.804
 UNBOUND:                 3.409
  Name = /scratch/kmzp800/tmphe1y64up/tmpdg8207nq.pdb
  4 active torsions:
  status: ('A' for Active; 'I' for Inactive)
    1  A    between atoms: C3_3  and  O1_4
    2  A    between atoms: O1_4  and  C4_5
    3  A    between atoms: N2_11  and  C9_12
    4  A    between atoms: N4_20  and  C15_21
                            x       y       z     vdW  Elec       q    Type
                         _______ _______ _______ _____ _____    ______ ____

>  <TORSDO>  (32) 
F 4

>  <grid_id>  (32) 
p38-prepared

>  <grid_path>  (32) 
/projects/mai/users/kmzp800_harry/pmx_colab/docking_jobs/p38/vina_docking/input_files/p38_vina.pdbqt

>  <grid_filename>  (32) 
p38_vina.pdbqt

>  <docking_score>  (32) 
-9.064

>  <compound_name>  (32) 
lig_p38a_2m

>  <index_string>  (32) 
32:0:12

$$$$
lig_p38a_2ee
     RDKit          3D

 52 55  0  0  1  0  0  0  0  0999 V2000
   34.1200   36.1110   20.5700 C   0  0  0  0  0  0  0  0  0  0  0  0
   33.6410   37.2640   21.1900 C   0  0  0  0  0  0  0  0  0  0  0  0
   33.5840   37.3330   22.5760 C   0  0  0  0  0  0  0  0  0  0  0  0
   33.1210   38.4760   23.2220 C   0  0  0  0  0  0  0  0  0  0  0  0
   33.0830   38.5130   24.5800 N   0  0  0  0  0  0  0  0  0  0  0  0
   33.4920   37.4490   25.3240 C   0  0  0  0  0  0  0  0  0  0  0  0
   33.4440   37.4990   26.7510 N   0  0  0  0  0  0  0  0  0  0  0  0
   33.9430   36.3230   24.7080 N   0  0  0  0  0  0  0  0  0  0  0  0
   34.0010   36.2370   23.3500 C   0  0  0  0  0  0  0  0  0  0  0  0
   34.4510   35.0990   22.7350 N   0  0  0  0  0  0  0  0  0  0  0  0
   34.8680   33.9580   23.5460 C   0  0  0  0  0  0  0  0  0  0  0  0
   34.5040   35.0110   21.3680 C   0  0  0  0  0  0  0  0  0  0  0  0
   34.8770   33.9390   20.8180 O   0  0  0  0  0  0  0  0  0  0  0  0
   33.0070   38.6760   27.4890 C   0  0  0  0  0  0  0  0  0  0  0  0
   33.7850   39.9150   27.0090 C   0  0  0  0  0  0  0  0  0  0  0  0
   34.4070   40.7130   28.1540 C   0  0  0  0  0  0  0  0  0  0  0  0
   35.1690   39.8180   29.0230 N   0  0  0  0  0  0  0  0  0  0  0  0
   36.4820   40.1850   29.4730 C   0  0  0  0  0  0  0  0  0  0  0  0
   37.1270   39.4210   30.2390 O   0  0  0  0  0  0  0  0  0  0  0  0
   37.1090   41.4700   29.0470 C   0  0  0  0  0  0  0  0  0  0  0  0
   34.5750   38.5550   29.4740 C   0  0  0  0  0  0  0  0  0  0  0  0
   33.1290   38.4170   28.9950 C   0  0  0  0  0  0  0  0  0  0  0  0
   34.1570   36.0760   19.1690 O   0  0  0  0  0  0  0  0  0  0  0  0
   36.3170   35.7650   16.1900 C   0  0  0  0  0  0  0  0  0  0  0  0
   35.1870   35.8290   17.0100 C   0  0  0  0  0  0  0  0  0  0  0  0
   35.3210   36.0070   18.3910 C   0  0  0  0  0  0  0  0  0  0  0  0
   36.6110   36.1520   18.9460 C   0  0  0  0  0  0  0  0  0  0  0  0
   36.7810   36.3970   20.2680 F   0  0  0  0  0  0  0  0  0  0  0  0
   37.7370   36.0880   18.1210 C   0  0  0  0  0  0  0  0  0  0  0  0
   37.5920   35.8870   16.7460 C   0  0  0  0  0  0  0  0  0  0  0  0
   38.6860   35.8240   15.9510 F   0  0  0  0  0  0  0  0  0  0  0  0
   33.3085   38.1183   20.5821 H   0  0  0  0  0  0  0  0  0  0  0  0
   32.7875   39.3451   22.6360 H   0  0  0  0  0  0  0  0  0  0  0  0
   33.7316   36.6646   27.2820 H   0  0  0  0  0  0  0  0  0  0  0  0
   34.7750   34.2124   24.6121 H   0  0  0  0  0  0  0  0  0  0  0  0
   34.2279   33.0929   23.3183 H   0  0  0  0  0  0  0  0  0  0  0  0
   35.9151   33.7095   23.3183 H   0  0  0  0  0  0  0  0  0  0  0  0
   31.9447   38.8830   27.2922 H   0  0  0  0  0  0  0  0  0  0  0  0
   34.5893   39.5841   26.3355 H   0  0  0  0  0  0  0  0  0  0  0  0
   33.0677   40.5759   26.5004 H   0  0  0  0  0  0  0  0  0  0  0  0
   35.0781   41.4810   27.7418 H   0  0  0  0  0  0  0  0  0  0  0  0
   33.6085   41.1941   28.7379 H   0  0  0  0  0  0  0  0  0  0  0  0
   37.3930   42.0519   29.9362 H   0  0  0  0  0  0  0  0  0  0  0  0
   38.0054   41.2589   28.4453 H   0  0  0  0  0  0  0  0  0  0  0  0
   36.3910   42.0466   28.4453 H   0  0  0  0  0  0  0  0  0  0  0  0
   35.1662   37.7182   29.0737 H   0  0  0  0  0  0  0  0  0  0  0  0
   34.5783   38.5437   30.5739 H   0  0  0  0  0  0  0  0  0  0  0  0
   32.5033   39.1436   29.5341 H   0  0  0  0  0  0  0  0  0  0  0  0
   32.7966   37.3878   29.1954 H   0  0  0  0  0  0  0  0  0  0  0  0
   36.2018   35.6184   15.1059 H   0  0  0  0  0  0  0  0  0  0  0  0
   34.1846   35.7387   16.5660 H   0  0  0  0  0  0  0  0  0  0  0  0
   38.7416   36.1963   18.5559 H   0  0  0  0  0  0  0  0  0  0  0  0
  1  2  2  0
  1 12  1  0
  1 23  1  0
  2  3  1  0
  3  4  2  0
  3  9  1  0
  4  5  1  0
  5  6  2  0
  6  7  1  0
  6  8  1  0
  7 14  1  0
  8  9  2  0
  9 10  1  0
 10 11  1  0
 10 12  1  0
 12 13  2  0
 14 22  1  0
 14 15  1  0
 15 16  1  0
 16 17  1  0
 17 18  1  0
 17 21  1  0
 18 19  2  0
 18 20  1  0
 21 22  1  0
 23 26  1  0
 24 30  2  0
 24 25  1  0
 25 26  2  0
 26 27  1  0
 27 28  1  0
 27 29  2  0
 29 30  1  0
 30 31  1  0
  2 32  1  0
  4 33  1  0
  7 34  1  0
 11 35  1  0
 11 36  1  0
 11 37  1  0
 14 38  1  0
 15 39  1  0
 15 40  1  0
 16 41  1  0
 16 42  1  0
 20 43  1  0
 20 44  1  0
 20 45  1  0
 21 46  1  0
 21 47  1  0
 22 48  1  0
 22 49  1  0
 24 50  1  0
 25 51  1  0
 29 52  1  0
M  END
>  <s_m_entry_id>  (33) 
82

>  <MODEL>  (33) 
25

>  <REMARK>  (33) 
 VINA RESULT:    -8.426      1.663      2.096
 INTER + INTRA:          -7.263
 INTER:                  -7.888
 INTRA:                   0.625
 UNBOUND:                 2.641
  Name = /scratch/kmzp800/tmpqnh3rphy/tmpjm0ib_o7.pdb
  5 active torsions:
  status: ('A' for Active; 'I' for Inactive)
    1  A    between atoms: C3_3  and  O1_4
    2  A    between atoms: O1_4  and  C4_5
    3  A    between atoms: N2_11  and  C9_12
    4  A    between atoms: C12_16  and  C13_18
    5  A    between atoms: N5_23  and  C17_24
                            x       y       z     vdW  Elec       q    Type
                         _______ _______ _______ _____ _____    ______ ____

>  <TORSDO>  (33) 
F 3

>  <grid_id>  (33) 
p38-prepared

>  <grid_path>  (33) 
/projects/mai/users/kmzp800_harry/pmx_colab/docking_jobs/p38/vina_docking/input_files/p38_vina.pdbqt

>  <grid_filename>  (33) 
p38_vina.pdbqt

>  <docking_score>  (33) 
-8.426

>  <compound_name>  (33) 
lig_p38a_2ee

>  <index_string>  (33) 
33:0:24

$$$$
