12:0:0
     RDKit          3D

 59 63  0  0  1  0  0  0  0  0999 V2000
   33.5600   35.9680   20.0820 C   0  0  0  0  0  0  0  0  0  0  0  0
   33.8160   37.3300   20.2170 C   0  0  0  0  0  0  0  0  0  0  0  0
   33.5600   37.9660   21.4240 C   0  0  0  0  0  0  0  0  0  0  0  0
   33.8150   39.3240   21.5900 C   0  0  0  0  0  0  0  0  0  0  0  0
   33.5590   39.9180   22.7850 N   0  0  0  0  0  0  0  0  0  0  0  0
   33.0560   39.2070   23.8270 C   0  0  0  0  0  0  0  0  0  0  0  0
   32.7980   39.8630   25.0710 N   0  0  0  0  0  0  0  0  0  0  0  0
   32.8010   37.8780   23.6820 N   0  0  0  0  0  0  0  0  0  0  0  0
   33.0390   37.2350   22.5050 C   0  0  0  0  0  0  0  0  0  0  0  0
   32.7670   35.8980   22.3660 N   0  0  0  0  0  0  0  0  0  0  0  0
   33.0040   35.2610   21.1690 C   0  0  0  0  0  0  0  0  0  0  0  0
   32.7060   34.0420   21.0300 O   0  0  0  0  0  0  0  0  0  0  0  0
   32.2020   35.1780   23.5160 C   0  0  0  0  0  0  0  0  0  0  0  0
   30.7100   34.8470   23.3110 C   0  0  0  0  0  0  0  0  0  0  0  0
   30.4410   33.3780   23.0040 C   0  0  0  0  0  0  0  0  0  0  0  0
   31.0160   32.3780   24.3620 S   0  0  0  0  0  0  0  0  0  0  0  0
   29.9450   32.2700   25.4090 O   0  0  0  0  0  0  0  0  0  0  0  0
   31.3790   31.0080   23.8650 O   0  0  0  0  0  0  0  0  0  0  0  0
   32.4520   33.1750   25.0500 C   0  0  0  0  0  0  0  0  0  0  0  0
   33.1100   34.0210   23.9710 C   0  0  0  0  0  0  0  0  0  0  0  0
   32.2440   39.1710   26.2250 C   0  0  0  0  0  0  0  0  0  0  0  0
   31.0490   38.3160   25.7940 C   0  0  0  0  0  0  0  0  0  0  0  0
   30.7000   37.2570   26.8510 C   0  0  0  0  0  0  0  0  0  0  0  0
   31.3420   37.5210   28.0740 O   0  0  0  0  0  0  0  0  0  0  0  0
   32.7100   37.2780   27.8540 C   0  0  0  0  0  0  0  0  0  0  0  0
   33.3250   38.3300   26.9170 C   0  0  0  0  0  0  0  0  0  0  0  0
   33.8280   35.3620   18.8470 O   0  0  0  0  0  0  0  0  0  0  0  0
   37.3980   35.9200   18.0810 C   0  0  0  0  0  0  0  0  0  0  0  0
   36.2020   35.7500   18.7820 C   0  0  0  0  0  0  0  0  0  0  0  0
   35.0000   35.5350   18.0970 C   0  0  0  0  0  0  0  0  0  0  0  0
   35.0150   35.4600   16.6880 C   0  0  0  0  0  0  0  0  0  0  0  0
   33.8860   35.1840   15.9900 F   0  0  0  0  0  0  0  0  0  0  0  0
   36.2150   35.6310   15.9910 C   0  0  0  0  0  0  0  0  0  0  0  0
   37.4040   35.8680   16.6860 C   0  0  0  0  0  0  0  0  0  0  0  0
   38.5630   36.0340   16.0060 F   0  0  0  0  0  0  0  0  0  0  0  0
   34.2205   37.9012   19.3684 H   0  0  0  0  0  0  0  0  0  0  0  0
   34.2226   39.9147   20.7564 H   0  0  0  0  0  0  0  0  0  0  0  0
   33.0132   40.8669   25.1537 H   0  0  0  0  0  0  0  0  0  0  0  0
   32.1927   35.8482   24.3882 H   0  0  0  0  0  0  0  0  0  0  0  0
   30.1663   35.1144   24.2291 H   0  0  0  0  0  0  0  0  0  0  0  0
   30.3715   35.4235   22.4375 H   0  0  0  0  0  0  0  0  0  0  0  0
   29.3608   33.2234   22.8653 H   0  0  0  0  0  0  0  0  0  0  0  0
   30.9714   33.0906   22.0842 H   0  0  0  0  0  0  0  0  0  0  0  0
   32.1506   33.8175   25.8905 H   0  0  0  0  0  0  0  0  0  0  0  0
   33.1611   32.4166   25.4132 H   0  0  0  0  0  0  0  0  0  0  0  0
   33.3327   33.3816   23.1041 H   0  0  0  0  0  0  0  0  0  0  0  0
   34.0299   34.4541   24.3908 H   0  0  0  0  0  0  0  0  0  0  0  0
   31.8865   39.9109   26.9563 H   0  0  0  0  0  0  0  0  0  0  0  0
   30.1778   38.9705   25.6433 H   0  0  0  0  0  0  0  0  0  0  0  0
   31.3163   37.7965   24.8620 H   0  0  0  0  0  0  0  0  0  0  0  0
   29.6117   37.2563   27.0110 H   0  0  0  0  0  0  0  0  0  0  0  0
   31.0417   36.2775   26.4853 H   0  0  0  0  0  0  0  0  0  0  0  0
   33.2378   37.3063   28.8187 H   0  0  0  0  0  0  0  0  0  0  0  0
   32.8135   36.2908   27.3800 H   0  0  0  0  0  0  0  0  0  0  0  0
   33.9244   37.8179   26.1499 H   0  0  0  0  0  0  0  0  0  0  0  0
   33.9514   39.0037   27.5201 H   0  0  0  0  0  0  0  0  0  0  0  0
   38.3359   36.0950   18.6285 H   0  0  0  0  0  0  0  0  0  0  0  0
   36.2044   35.7853   19.8814 H   0  0  0  0  0  0  0  0  0  0  0  0
   36.2232   35.5788   14.8923 H   0  0  0  0  0  0  0  0  0  0  0  0
  1  2  2  0
  1 11  1  0
  1 27  1  0
  2  3  1  0
  2 36  1  0
  3  4  2  0
  3  9  1  0
  4  5  1  0
  4 37  1  0
  5  6  2  0
  6  7  1  0
  6  8  1  0
  7 21  1  0
  7 38  1  0
  8  9  2  0
  9 10  1  0
 10 13  1  0
 10 11  1  0
 11 12  2  0
 13 20  1  0
 13 14  1  0
 13 39  1  0
 14 15  1  0
 14 40  1  0
 14 41  1  0
 15 16  1  0
 15 42  1  0
 15 43  1  0
 16 19  1  0
 16 17  2  0
 16 18  2  0
 19 20  1  0
 19 44  1  0
 19 45  1  0
 20 46  1  0
 20 47  1  0
 21 26  1  0
 21 22  1  0
 21 48  1  0
 22 23  1  0
 22 49  1  0
 22 50  1  0
 23 24  1  0
 23 51  1  0
 23 52  1  0
 24 25  1  0
 25 26  1  0
 25 53  1  0
 25 54  1  0
 26 55  1  0
 26 56  1  0
 27 30  1  0
 28 29  2  0
 28 34  1  0
 28 57  1  0
 29 30  1  0
 29 58  1  0
 30 31  2  0
 31 32  1  0
 31 33  1  0
 33 34  2  0
 33 59  1  0
 34 35  1  0
M  END
>  <s_m_entry_id>  (1) 
1367

>  <MODEL>  (1) 
1

>  <REMARK>  (1) 
 VINA RESULT:    -9.457      0.000      0.000
 INTER + INTRA:         -11.431
 INTER:                 -11.668
 INTRA:                   0.236
 UNBOUND:                 0.236
  Name = /scratch/kmzp800/tmpjih4m6fe/tmpaw9zyuoj.pdb
  4 active torsions:
  status: ('A' for Active; 'I' for Inactive)
    1  A    between atoms: C3_3  and  O1_4
    2  A    between atoms: O1_4  and  C4_5
    3  A    between atoms: N2_11  and  C9_12
    4  A    between atoms: N4_20  and  C15_21
                            x       y       z     vdW  Elec       q    Type
                         _______ _______ _______ _____ _____    ______ ____

>  <TORSDO>  (1) 
F 4

>  <grid_id>  (1) 
p38-prepared

>  <grid_path>  (1) 
/projects/mai/users/kmzp800_harry/pmx_colab/docking_jobs/p38/vina_docking/input_files/p38_vina.pdbqt

>  <grid_filename>  (1) 
p38_vina.pdbqt

>  <docking_score>  (1) 
-9.457

>  <compound_name>  (1) 
lig_p38a_2q

>  <index_string>  (1) 
12:0:0

>  <s_m_Source_Path>  (1) 
/projects/mai/users/kmzp800_harry/pmx_colab/docking_jobs/p38

>  <s_m_Source_File>  (1) 
p38_confs_vina_naive.sdf

>  <i_m_Source_File_Index>  (1) 
14

$$$$
