8:0:0
     RDKit          3D

 44 47  0  0  1  0  0  0  0  0999 V2000
  -15.0050  -19.3190  -25.7610 C   0  0  0  0  0  0  0  0  0  0  0  0
  -14.9540  -19.9170  -27.0290 C   0  0  0  0  0  0  0  0  0  0  0  0
  -14.8070  -21.2930  -27.1670 C   0  0  0  0  0  0  0  0  0  0  0  0
  -14.6970  -22.1120  -26.0400 C   0  0  0  0  0  0  0  0  0  0  0  0
  -14.7300  -21.5210  -24.7730 C   0  0  0  0  0  0  0  0  0  0  0  0
  -14.8880  -20.1430  -24.6320 C   0  0  0  0  0  0  0  0  0  0  0  0
  -14.5000  -14.8020  -27.5260 C   0  0  0  0  0  0  0  0  0  0  0  0
  -14.9720  -15.6340  -26.4930 C   0  0  0  0  0  0  0  0  0  0  0  0
  -14.6000  -13.4170  -27.3870 C   0  0  0  0  0  0  0  0  0  0  0  0
  -15.5930  -15.0650  -25.3720 C   0  0  0  0  0  0  0  0  0  0  0  0
  -14.8120  -17.0310  -26.5810 N   0  0  0  0  0  0  0  0  0  0  0  0
  -15.1900  -12.8560  -26.2580 C   0  0  0  0  0  0  0  0  0  0  0  0
  -15.7040  -13.6750  -25.2480 C   0  0  0  0  0  0  0  0  0  0  0  0
  -16.1470  -15.9950  -24.3110 C   0  0  0  0  0  0  0  0  0  0  0  0
  -15.8190  -17.2970  -24.5500 N   0  0  0  0  0  0  0  0  0  0  0  0
  -16.8410  -15.6630  -23.3510 O   0  0  0  0  0  0  0  0  0  0  0  0
  -15.1880  -17.8470  -25.6520 C   0  0  0  0  0  0  0  0  0  0  0  0
  -15.2630  -11.5100  -26.1590 F   0  0  0  0  0  0  0  0  0  0  0  0
  -14.6490  -23.4860  -26.1610 N   0  0  0  0  0  0  0  0  0  0  0  0
  -15.7320  -23.9700  -27.1310 C   0  0  0  0  0  0  0  0  0  0  0  0
  -15.7260  -25.4960  -27.2630 C   0  0  0  0  0  0  0  0  0  0  0  0
  -14.4100  -25.8870  -27.9390 N   0  0  0  0  0  0  0  0  0  0  0  0
  -13.2470  -25.5600  -27.0000 C   0  0  0  0  0  0  0  0  0  0  0  0
  -13.2700  -24.0590  -26.5630 C   0  0  0  0  0  0  0  0  0  0  0  0
  -14.4130  -27.3910  -28.3140 C   0  0  0  0  0  0  0  0  0  0  0  0
  -15.0315  -19.2878  -27.9280 H   0  0  0  0  0  0  0  0  0  0  0  0
  -14.7771  -21.7404  -28.1715 H   0  0  0  0  0  0  0  0  0  0  0  0
  -14.6301  -22.1510  -23.8768 H   0  0  0  0  0  0  0  0  0  0  0  0
  -14.9212  -19.6981  -23.6265 H   0  0  0  0  0  0  0  0  0  0  0  0
  -14.0571  -15.2390  -28.4331 H   0  0  0  0  0  0  0  0  0  0  0  0
  -14.2082  -12.7613  -28.1785 H   0  0  0  0  0  0  0  0  0  0  0  0
  -16.1900  -13.2322  -24.3661 H   0  0  0  0  0  0  0  0  0  0  0  0
  -16.0765  -17.9630  -23.8077 H   0  0  0  0  0  0  0  0  0  0  0  0
  -16.7155  -23.6473  -26.7586 H   0  0  0  0  0  0  0  0  0  0  0  0
  -15.5269  -23.5371  -28.1212 H   0  0  0  0  0  0  0  0  0  0  0  0
  -15.7911  -25.9605  -26.2680 H   0  0  0  0  0  0  0  0  0  0  0  0
  -16.5865  -25.8399  -27.8557 H   0  0  0  0  0  0  0  0  0  0  0  0
  -13.3210  -26.1945  -26.1045 H   0  0  0  0  0  0  0  0  0  0  0  0
  -12.3056  -25.7495  -27.5365 H   0  0  0  0  0  0  0  0  0  0  0  0
  -12.8892  -23.4591  -27.4027 H   0  0  0  0  0  0  0  0  0  0  0  0
  -12.6534  -24.0077  -25.6535 H   0  0  0  0  0  0  0  0  0  0  0  0
  -14.4142  -27.9977  -27.3964 H   0  0  0  0  0  0  0  0  0  0  0  0
  -15.3116  -27.6195  -28.9058 H   0  0  0  0  0  0  0  0  0  0  0  0
  -13.5153  -27.6231  -28.9058 H   0  0  0  0  0  0  0  0  0  0  0  0
  1 17  1  0
  1  6  1  0
  1  2  2  0
  2  3  1  0
  3  4  2  0
  4  5  1  0
  4 19  1  0
  5  6  2  0
  7  9  2  0
  7  8  1  0
  8 10  2  0
  8 11  1  0
  9 12  1  0
 10 13  1  0
 10 14  1  0
 11 17  2  0
 12 18  1  0
 12 13  2  0
 14 16  2  0
 14 15  1  0
 15 17  1  0
 19 20  1  0
 19 24  1  0
 20 21  1  0
 21 22  1  0
 22 23  1  0
 22 25  1  0
 23 24  1  0
  2 26  1  0
  3 27  1  0
  5 28  1  0
  6 29  1  0
  7 30  1  0
  9 31  1  0
 13 32  1  0
 15 33  1  0
 20 34  1  0
 20 35  1  0
 21 36  1  0
 21 37  1  0
 23 38  1  0
 23 39  1  0
 24 40  1  0
 24 41  1  0
 25 42  1  0
 25 43  1  0
 25 44  1  0
M  END
>  <s_m_entry_id>  (1) 
2433

>  <MODEL>  (1) 
1

>  <REMARK>  (1) 
 VINA RESULT:   -11.631      0.000      0.000
 INTER + INTRA:         -13.375
 INTER:                 -12.992
 INTRA:                  -0.383
 UNBOUND:                -0.385
  Name = 8a
  3 active torsions:
  status: ('A' for Active; 'I' for Inactive)
    1  A    between atoms: C_11  and  C_12
    2  A    between atoms: C_15  and  N_19
    3  A    between atoms: N_22  and  C_25
                            x       y       z     vdW  Elec       q    Type
                         _______ _______ _______ _____ _____    ______ ____

>  <TORSDO>  (1) 
F 2

>  <s_m_Source_Path>  (1) 
/projects/mai/users/kmzp800_harry/pmx_colab/docking_jobs/tnks2/vina_prep/output_mcs

>  <s_m_Source_File>  (1) 
tnks_mcs_vina__all_poses.sdf

>  <i_m_Source_File_Index>  (1) 
51

>  <index_string>  (1) 
8:0:0

$$$$
