12:0:0
     RDKit          3D

 60 64  0  0  1  0  0  0  0  0999 V2000
   -4.5339   -3.2228   15.4682 C   0  0  0  0  0  0  0  0  0  0  0  0
   -3.8973   -2.2453   14.6820 O   0  0  0  0  0  0  0  0  0  0  0  0
   -2.5397   -2.0723   14.8231 C   0  0  0  0  0  0  0  0  0  0  0  0
   -1.7479   -2.8266   15.7123 C   0  0  0  0  0  0  0  0  0  0  0  0
   -0.3724   -2.5912   15.8166 C   0  0  0  0  0  0  0  0  0  0  0  0
    0.2461   -1.5717   15.0665 C   0  0  0  0  0  0  0  0  0  0  0  0
    1.6169   -1.3553   15.2904 N   0  0  0  0  0  0  0  0  0  0  0  0
    2.5334   -0.4326   14.7285 C   0  0  0  0  0  0  0  0  0  0  0  0
    2.1967    0.3725   13.7560 N   0  0  0  0  0  0  0  0  0  0  0  0
    3.1152    1.2670   13.2408 C   0  0  0  0  0  0  0  0  0  0  0  0
    4.4185    1.2939   13.6870 C   0  0  0  0  0  0  0  0  0  0  0  0
    4.7598    0.5000   14.7334 N   0  0  0  0  0  0  0  0  0  0  0  0
    5.9086    0.4009   15.4982 C   0  0  0  0  0  0  0  0  0  0  0  0
    5.6202   -0.4998   16.4938 C   0  0  0  0  0  0  0  0  0  0  0  0
    4.3710   -1.0703   16.3225 N   0  0  0  0  0  0  0  0  0  0  0  0
    3.8452   -0.4192   15.2911 C   0  0  0  0  0  0  0  0  0  0  0  0
    2.6475    2.1654   12.1600 C   0  0  0  0  0  0  0  0  0  0  0  0
    3.5556    2.6511   11.1830 C   0  0  0  0  0  0  0  0  0  0  0  0
    3.1446    3.4692   10.1210 C   0  0  0  0  0  0  0  0  0  0  0  0
    1.7911    3.8026   10.0163 C   0  0  0  0  0  0  0  0  0  0  0  0
    0.8695    3.3926   11.0173 C   0  0  0  0  0  0  0  0  0  0  0  0
    1.2927    2.5517   12.0760 C   0  0  0  0  0  0  0  0  0  0  0  0
   -0.5710    3.7892   10.9260 C   0  0  0  0  0  0  0  0  0  0  0  0
   -1.1690    3.7138    9.8474 O   0  0  0  0  0  0  0  0  0  0  0  0
   -1.1047    4.2211   12.0983 N   0  0  0  0  0  0  0  0  0  0  0  0
   -2.4509    4.6275   12.3204 C   0  0  0  0  0  0  0  0  0  0  0  0
   -2.6933    5.6144   13.2996 C   0  0  0  0  0  0  0  0  0  0  0  0
   -4.0044    6.0876   13.5124 C   0  0  0  0  0  0  0  0  0  0  0  0
   -5.0678    5.5956   12.7486 C   0  0  0  0  0  0  0  0  0  0  0  0
   -4.8486    4.5581   11.8139 C   0  0  0  0  0  0  0  0  0  0  0  0
   -3.5385    4.0797   11.6023 C   0  0  0  0  0  0  0  0  0  0  0  0
   -5.9872    3.9840   11.0178 C   0  0  0  0  0  0  0  0  0  0  0  0
   -6.0634    2.7356   10.9002 O   0  0  0  0  0  0  0  0  0  0  0  0
   -6.8755    4.7609   10.5706 O   0  0  0  0  0  0  0  0  0  0  0  0
   -0.5454   -0.8091   14.1801 C   0  0  0  0  0  0  0  0  0  0  0  0
   -1.9292   -1.0667   14.0354 C   0  0  0  0  0  0  0  0  0  0  0  0
   -2.7401   -0.3199   13.1996 O   0  0  0  0  0  0  0  0  0  0  0  0
   -2.1796    0.7004   12.3880 C   0  0  0  0  0  0  0  0  0  0  0  0
   -5.5940   -3.2520   15.2392 H   0  0  0  0  0  0  0  0  0  0  0  0
   -4.1324   -4.2154   15.2735 H   0  0  0  0  0  0  0  0  0  0  0  0
   -4.4435   -3.0043   16.5340 H   0  0  0  0  0  0  0  0  0  0  0  0
   -2.1667   -3.6027   16.3120 H   0  0  0  0  0  0  0  0  0  0  0  0
    0.2124   -3.1877   16.4936 H   0  0  0  0  0  0  0  0  0  0  0  0
    2.0666   -2.0337   15.8953 H   0  0  0  0  0  0  0  0  0  0  0  0
    5.1848    1.9709   13.3188 H   0  0  0  0  0  0  0  0  0  0  0  0
    6.7722    1.0186   15.2623 H   0  0  0  0  0  0  0  0  0  0  0  0
    6.1728   -0.7825   17.3581 H   0  0  0  0  0  0  0  0  0  0  0  0
    4.5895    2.3817   11.2313 H   0  0  0  0  0  0  0  0  0  0  0  0
    3.8654    3.7768    9.3742 H   0  0  0  0  0  0  0  0  0  0  0  0
    1.4606    4.4094    9.1931 H   0  0  0  0  0  0  0  0  0  0  0  0
    0.5992    2.1983   12.8273 H   0  0  0  0  0  0  0  0  0  0  0  0
   -0.4774    4.3356   12.8835 H   0  0  0  0  0  0  0  0  0  0  0  0
   -1.8797    5.9961   13.9027 H   0  0  0  0  0  0  0  0  0  0  0  0
   -4.1811    6.8436   14.2619 H   0  0  0  0  0  0  0  0  0  0  0  0
   -6.0596    5.9937   12.8974 H   0  0  0  0  0  0  0  0  0  0  0  0
   -3.3806    3.3093   10.8568 H   0  0  0  0  0  0  0  0  0  0  0  0
   -0.0890   -0.0202   13.6080 H   0  0  0  0  0  0  0  0  0  0  0  0
   -2.9780    1.1143   11.7543 H   0  0  0  0  0  0  0  0  0  0  0  0
   -1.7775    1.5359   12.9723 H   0  0  0  0  0  0  0  0  0  0  0  0
   -1.4037    0.3135   11.7207 H   0  0  0  0  0  0  0  0  0  0  0  0
  1  2  1  0
  1 39  1  0
  1 40  1  0
  1 41  1  0
  2  3  1  0
  3  4  2  0
  3 36  1  0
  4  5  1  0
  4 42  1  0
  5  6  2  0
  5 43  1  0
  6  7  1  0
  6 35  1  0
  7  8  1  0
  7 44  1  0
  8  9  2  0
  8 16  1  0
  9 10  1  0
 10 11  2  0
 10 17  1  0
 11 12  1  0
 11 45  1  0
 12 13  1  0
 12 16  1  0
 13 14  2  0
 13 46  1  0
 14 15  1  0
 14 47  1  0
 15 16  2  0
 17 18  2  0
 17 22  1  0
 18 19  1  0
 18 48  1  0
 19 20  2  0
 19 49  1  0
 20 21  1  0
 20 50  1  0
 21 22  2  0
 21 23  1  0
 22 51  1  0
 23 24  2  0
 23 25  1  0
 25 26  1  0
 25 52  1  0
 26 27  2  0
 26 31  1  0
 27 28  1  0
 27 53  1  0
 28 29  2  0
 28 54  1  0
 29 30  1  0
 29 55  1  0
 30 31  2  0
 30 32  1  0
 31 56  1  0
 32 33  2  0
 32 34  1  0
 35 36  2  0
 35 57  1  0
 36 37  1  0
 37 38  1  0
 38 58  1  0
 38 59  1  0
 38 60  1  0
M  CHG  1  34  -1
M  END
>  <s_m_entry_id>  (1) 
1086

>  <IC50[nM]>  (1) 
8.9

>  <s_m_Source_Path>  (1) 
/projects/mai/users/kmzp800_harry/pmx_colab/docking_jobs/syk

>  <s_m_Source_File>  (1) 
tnks2_lig.sdf

>  <i_m_Source_File_Index>  (1) 
14

>  <s_m_job_name>  (1) 
glide-dock_SP_syk_mcs

>  <r_i_docking_score>  (1) 
-7.50655527251201

>  <r_i_glide_gscore>  (1) 
-7.50655527251201

>  <r_i_glide_emodel>  (1) 
-73.4041105340051

>  <index_string>  (1) 
12:0:0

$$$$
