28:0:0
     RDKit          3D

 47 51  0  0  1  0  0  0  0  0999 V2000
   -4.5244   -3.2192   15.4945 C   0  0  0  0  0  0  0  0  0  0  0  0
   -3.8815   -2.2522   14.6748 O   0  0  0  0  0  0  0  0  0  0  0  0
   -2.5261   -2.0664   14.8239 C   0  0  0  0  0  0  0  0  0  0  0  0
   -1.7364   -2.8246   15.7121 C   0  0  0  0  0  0  0  0  0  0  0  0
   -0.3629   -2.5867   15.8174 C   0  0  0  0  0  0  0  0  0  0  0  0
    0.2506   -1.5662   15.0739 C   0  0  0  0  0  0  0  0  0  0  0  0
    1.6211   -1.3568   15.2913 N   0  0  0  0  0  0  0  0  0  0  0  0
    2.5295   -0.4306   14.7279 C   0  0  0  0  0  0  0  0  0  0  0  0
    2.1914    0.3748   13.7579 N   0  0  0  0  0  0  0  0  0  0  0  0
    3.1188    1.2530   13.2259 C   0  0  0  0  0  0  0  0  0  0  0  0
    4.4185    1.2877   13.6849 C   0  0  0  0  0  0  0  0  0  0  0  0
    4.7536    0.4959   14.7329 N   0  0  0  0  0  0  0  0  0  0  0  0
    5.9053    0.3845   15.4866 C   0  0  0  0  0  0  0  0  0  0  0  0
    5.6190   -0.4991   16.4942 C   0  0  0  0  0  0  0  0  0  0  0  0
    4.3673   -1.0539   16.3351 N   0  0  0  0  0  0  0  0  0  0  0  0
    3.8337   -0.4105   15.3045 C   0  0  0  0  0  0  0  0  0  0  0  0
    2.6476    2.1609   12.1494 C   0  0  0  0  0  0  0  0  0  0  0  0
    3.5592    2.6600   11.1775 C   0  0  0  0  0  0  0  0  0  0  0  0
    3.1551    3.4873   10.1195 C   0  0  0  0  0  0  0  0  0  0  0  0
    1.7997    3.8569   10.0198 C   0  0  0  0  0  0  0  0  0  0  0  0
    0.9989    4.6340    9.1335 C   0  0  0  0  0  0  0  0  0  0  0  0
   -0.2552    4.6540    9.5196 N   0  0  0  0  0  0  0  0  0  0  0  0
   -0.3208    3.9139   10.6483 N   0  0  0  0  0  0  0  0  0  0  0  0
    0.8942    3.3820   11.0170 C   0  0  0  0  0  0  0  0  0  0  0  0
    1.2928    2.5474   12.0686 C   0  0  0  0  0  0  0  0  0  0  0  0
   -0.5343   -0.8085   14.1810 C   0  0  0  0  0  0  0  0  0  0  0  0
   -1.9187   -1.0541   14.0443 C   0  0  0  0  0  0  0  0  0  0  0  0
   -2.7328   -0.3166   13.2071 O   0  0  0  0  0  0  0  0  0  0  0  0
   -2.1771    0.7099   12.3917 C   0  0  0  0  0  0  0  0  0  0  0  0
   -5.5853   -3.2453   15.2486 H   0  0  0  0  0  0  0  0  0  0  0  0
   -4.4387   -2.9687   16.5529 H   0  0  0  0  0  0  0  0  0  0  0  0
   -4.1249   -4.2204   15.3272 H   0  0  0  0  0  0  0  0  0  0  0  0
   -2.1579   -3.5965   16.3301 H   0  0  0  0  0  0  0  0  0  0  0  0
    0.2198   -3.1960   16.4881 H   0  0  0  0  0  0  0  0  0  0  0  0
    2.0706   -2.0324   15.9013 H   0  0  0  0  0  0  0  0  0  0  0  0
    5.1967    1.9289   13.2869 H   0  0  0  0  0  0  0  0  0  0  0  0
    6.7766    0.9750   15.2300 H   0  0  0  0  0  0  0  0  0  0  0  0
    6.1919   -0.7839   17.3422 H   0  0  0  0  0  0  0  0  0  0  0  0
    4.5998    2.3905   11.2297 H   0  0  0  0  0  0  0  0  0  0  0  0
    3.8854    3.8276    9.3967 H   0  0  0  0  0  0  0  0  0  0  0  0
    1.2968    5.1675    8.2413 H   0  0  0  0  0  0  0  0  0  0  0  0
   -1.2037    3.8026   11.1260 H   0  0  0  0  0  0  0  0  0  0  0  0
    0.5797    2.1853   12.7998 H   0  0  0  0  0  0  0  0  0  0  0  0
   -0.0730   -0.0251   13.6104 H   0  0  0  0  0  0  0  0  0  0  0  0
   -2.9685    1.1228   11.7635 H   0  0  0  0  0  0  0  0  0  0  0  0
   -1.7767    1.5279   12.9911 H   0  0  0  0  0  0  0  0  0  0  0  0
   -1.4006    0.3285   11.7285 H   0  0  0  0  0  0  0  0  0  0  0  0
  1  2  1  0
  1 30  1  0
  1 31  1  0
  1 32  1  0
  2  3  1  0
  3  4  2  0
  3 27  1  0
  4  5  1  0
  4 33  1  0
  5  6  2  0
  5 34  1  0
  6  7  1  0
  6 26  1  0
  7  8  1  0
  7 35  1  0
  8  9  2  0
  8 16  1  0
  9 10  1  0
 10 11  2  0
 10 17  1  0
 11 12  1  0
 11 36  1  0
 12 13  1  0
 12 16  1  0
 13 14  2  0
 13 37  1  0
 14 15  1  0
 14 38  1  0
 15 16  2  0
 17 18  2  0
 17 25  1  0
 18 19  1  0
 18 39  1  0
 19 20  2  0
 19 40  1  0
 20 21  1  0
 20 24  1  0
 21 22  2  0
 21 41  1  0
 22 23  1  0
 23 24  1  0
 23 42  1  0
 24 25  2  0
 25 43  1  0
 26 27  2  0
 26 44  1  0
 27 28  1  0
 28 29  1  0
 29 45  1  0
 29 46  1  0
 29 47  1  0
M  END
>  <s_m_entry_id>  (1) 
1108

>  <IC50[nM]>  (1) 
3.8

>  <s_m_Source_Path>  (1) 
/projects/mai/users/kmzp800_harry/pmx_colab/docking_jobs/syk

>  <s_m_Source_File>  (1) 
tnks2_lig.sdf

>  <i_m_Source_File_Index>  (1) 
31

>  <s_m_job_name>  (1) 
glide-dock_SP_syk_mcs

>  <r_i_docking_score>  (1) 
-6.73187192295282

>  <r_i_glide_gscore>  (1) 
-6.73187192295282

>  <r_i_glide_emodel>  (1) 
-45.329275719932

>  <index_string>  (1) 
28:0:0

$$$$
