37:0:0
     RDKit          3D

 51 55  0  0  1  0  0  0  0  0999 V2000
   -5.0247   -4.9088   13.6435 C   0  0  0  0  0  0  0  0  0  0  0  0
   -3.8448   -5.4672   14.2026 O   0  0  0  0  0  0  0  0  0  0  0  0
   -2.8486   -4.6058   14.6192 C   0  0  0  0  0  0  0  0  0  0  0  0
   -2.9071   -3.2017   14.4364 C   0  0  0  0  0  0  0  0  0  0  0  0
   -1.8412   -2.3819   14.8468 C   0  0  0  0  0  0  0  0  0  0  0  0
   -0.6917   -2.9445   15.4376 C   0  0  0  0  0  0  0  0  0  0  0  0
    0.4229   -2.1812   15.8173 N   0  0  0  0  0  0  0  0  0  0  0  0
    1.0838   -1.1861   15.0851 C   0  0  0  0  0  0  0  0  0  0  0  0
    0.4090   -0.4941   14.2148 N   0  0  0  0  0  0  0  0  0  0  0  0
    1.0421    0.4564   13.4535 C   0  0  0  0  0  0  0  0  0  0  0  0
    2.4032    0.6499   13.5035 C   0  0  0  0  0  0  0  0  0  0  0  0
    3.0992   -0.0392   14.4436 N   0  0  0  0  0  0  0  0  0  0  0  0
    4.4303    0.0044   14.8144 C   0  0  0  0  0  0  0  0  0  0  0  0
    4.5577   -0.7962   15.9144 C   0  0  0  0  0  0  0  0  0  0  0  0
    3.3481   -1.4146   16.2163 N   0  0  0  0  0  0  0  0  0  0  0  0
    2.4711   -0.9574   15.3192 C   0  0  0  0  0  0  0  0  0  0  0  0
    0.1499    1.2916   12.6163 C   0  0  0  0  0  0  0  0  0  0  0  0
   -1.1120    0.8141   12.1839 C   0  0  0  0  0  0  0  0  0  0  0  0
   -1.9518    1.6020   11.3752 C   0  0  0  0  0  0  0  0  0  0  0  0
   -1.5402    2.8754   10.9475 C   0  0  0  0  0  0  0  0  0  0  0  0
   -2.3725    3.5992   10.1208 O   0  0  0  0  0  0  0  0  0  0  0  0
   -1.7501    4.6797    9.4292 C   0  0  0  0  0  0  0  0  0  0  0  0
   -0.8851    5.5023   10.3953 C   0  0  0  0  0  0  0  0  0  0  0  0
    0.1354    4.6608   11.0028 N   0  0  0  0  0  0  0  0  0  0  0  0
   -0.2934    3.3832   11.3877 C   0  0  0  0  0  0  0  0  0  0  0  0
    0.5313    2.5960   12.2174 C   0  0  0  0  0  0  0  0  0  0  0  0
   -0.6566   -4.3335   15.6664 C   0  0  0  0  0  0  0  0  0  0  0  0
   -1.7199   -5.1761   15.2533 C   0  0  0  0  0  0  0  0  0  0  0  0
   -1.7149   -6.5484   15.4139 O   0  0  0  0  0  0  0  0  0  0  0  0
   -0.6974   -7.1342   16.2156 C   0  0  0  0  0  0  0  0  0  0  0  0
   -5.7258   -5.7075   13.4066 H   0  0  0  0  0  0  0  0  0  0  0  0
   -4.8130   -4.3733   12.7171 H   0  0  0  0  0  0  0  0  0  0  0  0
   -5.5180   -4.2354   14.3463 H   0  0  0  0  0  0  0  0  0  0  0  0
   -3.7569   -2.7262   13.9722 H   0  0  0  0  0  0  0  0  0  0  0  0
   -1.9225   -1.3173   14.6965 H   0  0  0  0  0  0  0  0  0  0  0  0
    1.0480   -2.6448   16.4682 H   0  0  0  0  0  0  0  0  0  0  0  0
    2.9519    1.3685   12.9066 H   0  0  0  0  0  0  0  0  0  0  0  0
    5.1299    0.6394   14.2888 H   0  0  0  0  0  0  0  0  0  0  0  0
    5.4408   -0.9994   16.5045 H   0  0  0  0  0  0  0  0  0  0  0  0
   -1.4452   -0.1779   12.4562 H   0  0  0  0  0  0  0  0  0  0  0  0
   -2.8990    1.2053   11.0389 H   0  0  0  0  0  0  0  0  0  0  0  0
   -1.1482    4.2853    8.6083 H   0  0  0  0  0  0  0  0  0  0  0  0
   -2.5215    5.3066    8.9807 H   0  0  0  0  0  0  0  0  0  0  0  0
   -0.4000    6.3204    9.8631 H   0  0  0  0  0  0  0  0  0  0  0  0
   -1.5005    5.9441   11.1800 H   0  0  0  0  0  0  0  0  0  0  0  0
    0.8935    5.1072   11.4984 H   0  0  0  0  0  0  0  0  0  0  0  0
    1.4741    3.0079   12.5420 H   0  0  0  0  0  0  0  0  0  0  0  0
    0.2185   -4.7413   16.1465 H   0  0  0  0  0  0  0  0  0  0  0  0
   -0.8372   -8.2136   16.2260 H   0  0  0  0  0  0  0  0  0  0  0  0
    0.3002   -6.9407   15.8195 H   0  0  0  0  0  0  0  0  0  0  0  0
   -0.7530   -6.7954   17.2490 H   0  0  0  0  0  0  0  0  0  0  0  0
  1  2  1  0
  1 31  1  0
  1 32  1  0
  1 33  1  0
  2  3  1  0
  3  4  2  0
  3 28  1  0
  4  5  1  0
  4 34  1  0
  5  6  2  0
  5 35  1  0
  6  7  1  0
  6 27  1  0
  7  8  1  0
  7 36  1  0
  8  9  2  0
  8 16  1  0
  9 10  1  0
 10 11  2  0
 10 17  1  0
 11 12  1  0
 11 37  1  0
 12 13  1  0
 12 16  1  0
 13 14  2  0
 13 38  1  0
 14 15  1  0
 14 39  1  0
 15 16  2  0
 17 18  2  0
 17 26  1  0
 18 19  1  0
 18 40  1  0
 19 20  2  0
 19 41  1  0
 20 21  1  0
 20 25  1  0
 21 22  1  0
 22 23  1  0
 22 42  1  0
 22 43  1  0
 23 24  1  0
 23 44  1  0
 23 45  1  0
 24 25  1  0
 24 46  1  0
 25 26  2  0
 26 47  1  0
 27 28  2  0
 27 48  1  0
 28 29  1  0
 29 30  1  0
 30 49  1  0
 30 50  1  0
 30 51  1  0
M  END
>  <s_m_entry_id>  (1) 
717

>  <IC50[nM]>  (1) 
4.7

>  <s_m_Source_Path>  (1) 
/projects/mai/users/kmzp800_harry/pmx_colab/docking_jobs/syk

>  <s_m_Source_File>  (1) 
tnks2_lig.sdf

>  <i_m_Source_File_Index>  (1) 
38

>  <s_m_job_name>  (1) 
glide-dock_SP_tnks2_no_const

>  <r_i_docking_score>  (1) 
-6.81321855420205

>  <r_i_glide_gscore>  (1) 
-6.81321855420205

>  <r_i_glide_emodel>  (1) 
-60.1285851627998

>  <index_string>  (1) 
37:0:0

$$$$
