4:0:0
     RDKit          3D

 47 50  0  0  1  0  0  0  0  0999 V2000
  -14.5150  -14.5960  -27.3900 C   0  0  0  0  0  0  0  0  0  0  0  0
  -15.0310  -15.4450  -26.3930 C   0  0  0  0  0  0  0  0  0  0  0  0
  -14.6620  -13.2150  -27.2550 C   0  0  0  0  0  0  0  0  0  0  0  0
  -15.7400  -14.8990  -25.3140 C   0  0  0  0  0  0  0  0  0  0  0  0
  -14.8250  -16.8360  -26.4740 N   0  0  0  0  0  0  0  0  0  0  0  0
  -15.3420  -12.6750  -26.1660 C   0  0  0  0  0  0  0  0  0  0  0  0
  -15.8980  -13.5130  -25.1950 C   0  0  0  0  0  0  0  0  0  0  0  0
  -16.3360  -15.8480  -24.2950 C   0  0  0  0  0  0  0  0  0  0  0  0
  -15.9560  -17.1400  -24.5150 N   0  0  0  0  0  0  0  0  0  0  0  0
  -17.1020  -15.5400  -23.3820 O   0  0  0  0  0  0  0  0  0  0  0  0
  -15.2390  -17.6670  -25.5730 C   0  0  0  0  0  0  0  0  0  0  0  0
  -15.4590  -11.3330  -26.0700 F   0  0  0  0  0  0  0  0  0  0  0  0
  -13.7950  -15.1940  -28.6140 C   0  0  0  0  0  0  0  0  0  0  0  0
  -15.0070  -19.1320  -25.6730 C   0  0  0  0  0  0  0  0  0  0  0  0
  -14.9140  -19.7330  -26.9380 C   0  0  0  0  0  0  0  0  0  0  0  0
  -14.7220  -21.1040  -27.0680 C   0  0  0  0  0  0  0  0  0  0  0  0
  -14.6060  -21.9150  -25.9360 C   0  0  0  0  0  0  0  0  0  0  0  0
  -14.6810  -21.3220  -24.6720 C   0  0  0  0  0  0  0  0  0  0  0  0
  -14.8850  -19.9490  -24.5390 C   0  0  0  0  0  0  0  0  0  0  0  0
  -14.5130  -23.2870  -26.0510 N   0  0  0  0  0  0  0  0  0  0  0  0
  -15.5300  -23.8040  -27.0730 C   0  0  0  0  0  0  0  0  0  0  0  0
  -15.4740  -25.3300  -27.2010 C   0  0  0  0  0  0  0  0  0  0  0  0
  -14.1150  -25.6830  -27.8090 N   0  0  0  0  0  0  0  0  0  0  0  0
  -13.0110  -25.3210  -26.8130 C   0  0  0  0  0  0  0  0  0  0  0  0
  -13.0990  -23.8210  -26.3820 C   0  0  0  0  0  0  0  0  0  0  0  0
  -14.0550  -27.1860  -28.1790 C   0  0  0  0  0  0  0  0  0  0  0  0
  -14.2362  -12.5455  -28.0169 H   0  0  0  0  0  0  0  0  0  0  0  0
  -16.4538  -13.0879  -24.3463 H   0  0  0  0  0  0  0  0  0  0  0  0
  -16.2431  -17.8161  -23.7929 H   0  0  0  0  0  0  0  0  0  0  0  0
  -12.9899  -15.8627  -28.2753 H   0  0  0  0  0  0  0  0  0  0  0  0
  -14.5144  -15.7640  -29.2203 H   0  0  0  0  0  0  0  0  0  0  0  0
  -13.3667  -14.3822  -29.2203 H   0  0  0  0  0  0  0  0  0  0  0  0
  -14.9943  -19.1096  -27.8407 H   0  0  0  0  0  0  0  0  0  0  0  0
  -14.6609  -21.5538  -28.0700 H   0  0  0  0  0  0  0  0  0  0  0  0
  -14.5779  -21.9459  -23.7719 H   0  0  0  0  0  0  0  0  0  0  0  0
  -14.9509  -19.5024  -23.5359 H   0  0  0  0  0  0  0  0  0  0  0  0
  -16.5401  -23.5094  -26.7521 H   0  0  0  0  0  0  0  0  0  0  0  0
  -15.2863  -23.3671  -28.0526 H   0  0  0  0  0  0  0  0  0  0  0  0
  -15.5757  -25.7954  -26.2095 H   0  0  0  0  0  0  0  0  0  0  0  0
  -16.2935  -25.6992  -27.8352 H   0  0  0  0  0  0  0  0  0  0  0  0
  -13.1122  -25.9560  -25.9205 H   0  0  0  0  0  0  0  0  0  0  0  0
  -12.0386  -25.4839  -27.3007 H   0  0  0  0  0  0  0  0  0  0  0  0
  -12.6939  -23.2116  -27.2032 H   0  0  0  0  0  0  0  0  0  0  0  0
  -12.5306  -23.7508  -25.4429 H   0  0  0  0  0  0  0  0  0  0  0  0
  -14.0309  -27.7893  -27.2595 H   0  0  0  0  0  0  0  0  0  0  0  0
  -14.9432  -27.4538  -28.7701 H   0  0  0  0  0  0  0  0  0  0  0  0
  -13.1483  -27.3822  -28.7701 H   0  0  0  0  0  0  0  0  0  0  0  0
  1  3  2  0
  1  2  1  0
  1 13  1  0
  2  4  2  0
  2  5  1  0
  3  6  1  0
  4  7  1  0
  4  8  1  0
  5 11  2  0
  6 12  1  0
  6  7  2  0
  8 10  2  0
  8  9  1  0
  9 11  1  0
 11 14  1  0
 14 19  1  0
 14 15  2  0
 15 16  1  0
 16 17  2  0
 17 18  1  0
 17 20  1  0
 18 19  2  0
 20 21  1  0
 20 25  1  0
 21 22  1  0
 22 23  1  0
 23 24  1  0
 23 26  1  0
 24 25  1  0
  3 27  1  0
  7 28  1  0
  9 29  1  0
 13 30  1  0
 13 31  1  0
 13 32  1  0
 15 33  1  0
 16 34  1  0
 18 35  1  0
 19 36  1  0
 21 37  1  0
 21 38  1  0
 22 39  1  0
 22 40  1  0
 24 41  1  0
 24 42  1  0
 25 43  1  0
 25 44  1  0
 26 45  1  0
 26 46  1  0
 26 47  1  0
M  END
>  <s_m_entry_id>  (1) 
2393

>  <MODEL>  (1) 
1

>  <REMARK>  (1) 
 VINA RESULT:   -11.218      0.000      0.000
 INTER + INTRA:         -12.911
 INTER:                 -12.496
 INTRA:                  -0.415
 UNBOUND:                -0.381
  Name = 8b
  4 active torsions:
  status: ('A' for Active; 'I' for Inactive)
    1  A    between atoms: C_1  and  C_45
    2  A    between atoms: C_11  and  C_12
    3  A    between atoms: C_15  and  N_19
    4  A    between atoms: N_22  and  C_25
                            x       y       z     vdW  Elec       q    Type
                         _______ _______ _______ _____ _____    ______ ____

>  <TORSDO>  (1) 
F 2

>  <s_m_Source_Path>  (1) 
/projects/mai/users/kmzp800_harry/pmx_colab/docking_jobs/tnks2/vina_prep/output_mcs

>  <s_m_Source_File>  (1) 
tnks_mcs_vina__all_poses.sdf

>  <i_m_Source_File_Index>  (1) 
11

>  <index_string>  (1) 
4:0:0

$$$$
