4:0:0
     RDKit          3D

 43 47  0  0  1  0  0  0  0  0999 V2000
    6.1950    0.1550   15.8610 C   0  0  0  0  0  0  0  0  0  0  0  0
    5.8460    0.9070   14.7870 N   0  0  0  0  0  0  0  0  0  0  0  0
    4.5690    0.5550   14.5560 C   0  0  0  0  0  0  0  0  0  0  0  0
    3.7370    1.0420   13.5520 C   0  0  0  0  0  0  0  0  0  0  0  0
    4.2170    2.0260   12.6230 N   0  0  0  0  0  0  0  0  0  0  0  0
    2.4650    0.5510   13.4900 N   0  0  0  0  0  0  0  0  0  0  0  0
    1.9990   -0.3880   14.3730 C   0  0  0  0  0  0  0  0  0  0  0  0
    2.8620   -0.8650   15.3790 C   0  0  0  0  0  0  0  0  0  0  0  0
    4.1180   -0.3600   15.4180 N   0  0  0  0  0  0  0  0  0  0  0  0
    5.1220   -0.6380   16.2600 C   0  0  0  0  0  0  0  0  0  0  0  0
    0.6120   -0.8860   14.2600 C   0  0  0  0  0  0  0  0  0  0  0  0
   -0.3140   -0.2090   13.4240 C   0  0  0  0  0  0  0  0  0  0  0  0
   -1.6410   -0.6590   13.2960 C   0  0  0  0  0  0  0  0  0  0  0  0
   -2.0020   -1.7880   14.0220 C   0  0  0  0  0  0  0  0  0  0  0  0
   -3.1930   -2.4690   14.1160 C   0  0  0  0  0  0  0  0  0  0  0  0
   -2.9850   -3.5030   14.9700 N   0  0  0  0  0  0  0  0  0  0  0  0
   -1.7270   -3.4930   15.4050 N   0  0  0  0  0  0  0  0  0  0  0  0
   -1.1240   -2.4460   14.8270 C   0  0  0  0  0  0  0  0  0  0  0  0
    0.1960   -2.0310   14.9780 C   0  0  0  0  0  0  0  0  0  0  0  0
    3.4870    2.6220   11.5420 C   0  0  0  0  0  0  0  0  0  0  0  0
    4.0740    2.8640   10.2900 C   0  0  0  0  0  0  0  0  0  0  0  0
    3.3300    3.4470    9.2620 C   0  0  0  0  0  0  0  0  0  0  0  0
    1.9930    3.7920    9.4750 C   0  0  0  0  0  0  0  0  0  0  0  0
    1.3940    3.5570   10.7160 C   0  0  0  0  0  0  0  0  0  0  0  0
    2.1490    2.9710   11.7460 C   0  0  0  0  0  0  0  0  0  0  0  0
    0.0550    3.9130   10.8990 O   0  0  0  0  0  0  0  0  0  0  0  0
   -0.8970    3.0380   11.4880 C   0  0  0  0  0  0  0  0  0  0  0  0
    7.1821    0.1696   16.3461 H   0  0  0  0  0  0  0  0  0  0  0  0
    5.1910    2.3375   12.7463 H   0  0  0  0  0  0  0  0  0  0  0  0
    2.5280   -1.6198   16.1061 H   0  0  0  0  0  0  0  0  0  0  0  0
    5.1028   -1.3498   17.0984 H   0  0  0  0  0  0  0  0  0  0  0  0
    0.0111    0.6821   12.8670 H   0  0  0  0  0  0  0  0  0  0  0  0
   -2.3625   -0.1391   12.6485 H   0  0  0  0  0  0  0  0  0  0  0  0
   -4.1324   -2.2232   13.5991 H   0  0  0  0  0  0  0  0  0  0  0  0
   -1.2992   -4.1623   16.0606 H   0  0  0  0  0  0  0  0  0  0  0  0
    0.8918   -2.5752   15.6335 H   0  0  0  0  0  0  0  0  0  0  0  0
    5.1260    2.5929   10.1177 H   0  0  0  0  0  0  0  0  0  0  0  0
    3.7969    3.6347    8.2839 H   0  0  0  0  0  0  0  0  0  0  0  0
    1.4094    4.2503    8.6630 H   0  0  0  0  0  0  0  0  0  0  0  0
    1.6817    2.7847   12.7242 H   0  0  0  0  0  0  0  0  0  0  0  0
   -0.8261    3.1031   12.5838 H   0  0  0  0  0  0  0  0  0  0  0  0
   -1.9087    3.3280   11.1681 H   0  0  0  0  0  0  0  0  0  0  0  0
   -0.6932    2.0055   11.1681 H   0  0  0  0  0  0  0  0  0  0  0  0
  1 10  2  0
  1  2  1  0
  2  3  2  0
  3  9  1  0
  3  4  1  0
  4  5  1  0
  4  6  2  0
  5 20  1  0
  6  7  1  0
  7  8  2  0
  7 11  1  0
  8  9  1  0
  9 10  1  0
 11 19  1  0
 11 12  2  0
 12 13  1  0
 13 14  2  0
 14 15  1  0
 14 18  1  0
 15 16  2  0
 16 17  1  0
 17 18  1  0
 18 19  2  0
 20 25  1  0
 20 21  2  0
 21 22  1  0
 22 23  2  0
 23 24  1  0
 24 26  1  0
 24 25  2  0
 26 27  1  0
  1 28  1  0
  5 29  1  0
  8 30  1  0
 10 31  1  0
 12 32  1  0
 13 33  1  0
 15 34  1  0
 17 35  1  0
 19 36  1  0
 21 37  1  0
 22 38  1  0
 23 39  1  0
 25 40  1  0
 27 41  1  0
 27 42  1  0
 27 43  1  0
M  END
>  <s_m_entry_id>  (1) 
5

>  <MODEL>  (1) 
1

>  <REMARK>  (1) 
 VINA RESULT:    -9.507      0.000      0.000
 INTER + INTRA:         -11.581
 INTER:                 -11.174
 INTRA:                  -0.408
 UNBOUND:                -0.408
  Name = /scratch/kmzp800/tmpmqwg9p7s/tmpf758uyz6.pdb
  4 active torsions:
  status: ('A' for Active; 'I' for Inactive)
    1  A    between atoms: N2_5  and  C4_6
    2  A    between atoms: C8_10  and  O1_11
    3  A    between atoms: O1_11  and  C9_12
    4  A    between atoms: C11_15  and  C12_16
                            x       y       z     vdW  Elec       q    Type
                         _______ _______ _______ _____ _____    ______ ____

>  <TORSDO>  (1) 
F 3

>  <grid_id>  (1) 
syk-prepared

>  <grid_path>  (1) 
syk_vina.pdbqt

>  <grid_filename>  (1) 
syk_vina.pdbqt

>  <docking_score>  (1) 
-9.507

>  <compound_name>  (1) 
CHEMBL3265028

>  <index_string>  (1) 
4:0:0

>  <s_m_Source_Path>  (1) 
/projects/mai/users/kmzp800_harry/pmx_colab/docking_jobs/syk/vina_prep/output

>  <s_m_Source_File>  (1) 
ptp1b_docked_conformers.sdf

>  <i_m_Source_File_Index>  (1) 
5

$$$$
