31:0:0
     RDKit          3D

 50 54  0  0  1  0  0  0  0  0999 V2000
   38.9521   35.9804   16.2886 F   0  0  0  0  0  0  0  0  0  0  0  0
   37.8081   35.9495   16.9924 C   0  0  0  0  0  0  0  0  0  0  0  0
   36.6100   35.5823   16.3586 C   0  0  0  0  0  0  0  0  0  0  0  0
   35.4164   35.5492   17.0978 C   0  0  0  0  0  0  0  0  0  0  0  0
   34.2744   35.1492   16.4909 F   0  0  0  0  0  0  0  0  0  0  0  0
   35.4074   35.8813   18.4683 C   0  0  0  0  0  0  0  0  0  0  0  0
   36.6253   36.2602   19.0909 C   0  0  0  0  0  0  0  0  0  0  0  0
   37.8192   36.2999   18.3538 C   0  0  0  0  0  0  0  0  0  0  0  0
   34.2070   35.7897   19.1391 O   0  0  0  0  0  0  0  0  0  0  0  0
   34.1457   36.2487   20.4245 C   0  0  0  0  0  0  0  0  0  0  0  0
   34.1146   37.5689   20.6461 C   0  0  0  0  0  0  0  0  0  0  0  0
   34.2024   35.2717   21.5154 C   0  0  0  0  0  0  0  0  0  0  0  0
   34.2294   34.0666   21.2532 O   0  0  0  0  0  0  0  0  0  0  0  0
   34.2667   35.7530   22.8025 N   0  0  0  0  0  0  0  0  0  0  0  0
   34.4481   34.7516   23.8662 C   0  0  0  0  0  0  0  0  0  0  0  0
   35.3105   35.0116   25.0886 C   0  0  0  0  0  0  0  0  0  0  0  0
   33.8140   34.8652   25.2406 C   0  0  0  0  0  0  0  0  0  0  0  0
   34.2002   37.1854   23.0805 C   0  0  0  0  0  0  0  0  0  0  0  0
   34.1497   38.0877   21.9905 C   0  0  0  0  0  0  0  0  0  0  0  0
   34.1817   37.7202   24.3236 N   0  0  0  0  0  0  0  0  0  0  0  0
   34.1371   39.0430   24.4781 C   0  0  0  0  0  0  0  0  0  0  0  0
   34.1520   39.9492   23.5054 N   0  0  0  0  0  0  0  0  0  0  0  0
   34.1453   39.4701   22.2505 C   0  0  0  0  0  0  0  0  0  0  0  0
   34.0294   39.5472   25.7571 N   0  0  0  0  0  0  0  0  0  0  0  0
   33.9283   38.7479   26.9725 C   0  0  0  0  0  0  0  0  0  0  0  0
   35.3144   38.3604   27.5127 C   0  0  0  0  0  0  0  0  0  0  0  0
   36.0092   39.5486   28.2039 C   0  0  0  0  0  0  0  0  0  0  0  0
   35.1776   40.0665   29.2333 O   0  0  0  0  0  0  0  0  0  0  0  0
   33.9559   40.5949   28.7311 C   0  0  0  0  0  0  0  0  0  0  0  0
   33.1313   39.4796   28.0653 C   0  0  0  0  0  0  0  0  0  0  0  0
   36.6091   35.3204   15.3117 H   0  0  0  0  0  0  0  0  0  0  0  0
   36.6720   36.5158   20.1383 H   0  0  0  0  0  0  0  0  0  0  0  0
   38.7456   36.5837   18.8312 H   0  0  0  0  0  0  0  0  0  0  0  0
   34.0990   38.2715   19.8261 H   0  0  0  0  0  0  0  0  0  0  0  0
   34.5140   33.7136   23.5451 H   0  0  0  0  0  0  0  0  0  0  0  0
   35.9245   34.1865   25.4435 H   0  0  0  0  0  0  0  0  0  0  0  0
   35.7530   35.9913   25.2396 H   0  0  0  0  0  0  0  0  0  0  0  0
   33.2204   35.7404   25.4896 H   0  0  0  0  0  0  0  0  0  0  0  0
   33.4558   33.9425   25.6919 H   0  0  0  0  0  0  0  0  0  0  0  0
   34.1284   40.1967   21.4509 H   0  0  0  0  0  0  0  0  0  0  0  0
   33.9566   40.5586   25.8405 H   0  0  0  0  0  0  0  0  0  0  0  0
   33.3815   37.8373   26.7266 H   0  0  0  0  0  0  0  0  0  0  0  0
   35.2009   37.5530   28.2369 H   0  0  0  0  0  0  0  0  0  0  0  0
   35.9426   37.9654   26.7139 H   0  0  0  0  0  0  0  0  0  0  0  0
   36.9517   39.2257   28.6463 H   0  0  0  0  0  0  0  0  0  0  0  0
   36.2498   40.3363   27.4891 H   0  0  0  0  0  0  0  0  0  0  0  0
   33.3949   41.0273   29.5598 H   0  0  0  0  0  0  0  0  0  0  0  0
   34.1579   41.4072   28.0320 H   0  0  0  0  0  0  0  0  0  0  0  0
   32.2021   39.8828   27.6609 H   0  0  0  0  0  0  0  0  0  0  0  0
   32.8429   38.7605   28.8323 H   0  0  0  0  0  0  0  0  0  0  0  0
  1  2  1  0
  2  8  2  0
  2  3  1  0
  3  4  2  0
  3 31  1  0
  4  5  1  0
  4  6  1  0
  6  7  2  0
  6  9  1  0
  7  8  1  0
  7 32  1  0
  8 33  1  0
  9 10  1  0
 10 11  2  0
 10 12  1  0
 11 19  1  0
 11 34  1  0
 12 13  2  0
 12 14  1  0
 14 15  1  0
 14 18  1  0
 15 17  1  0
 15 16  1  0
 15 35  1  0
 16 17  1  0
 16 36  1  0
 16 37  1  0
 17 38  1  0
 17 39  1  0
 18 19  2  0
 18 20  1  0
 19 23  1  0
 20 21  2  0
 21 22  1  0
 21 24  1  0
 22 23  2  0
 23 40  1  0
 24 25  1  0
 24 41  1  0
 25 30  1  0
 25 26  1  0
 25 42  1  0
 26 27  1  0
 26 43  1  0
 26 44  1  0
 27 28  1  0
 27 45  1  0
 27 46  1  0
 28 29  1  0
 29 30  1  0
 29 47  1  0
 29 48  1  0
 30 49  1  0
 30 50  1  0
M  END
>  <s_m_entry_id>  (1) 
747

>  <i_f3d_flags>  (1) 
0

>  <r_lp_tautomer_probability>  (1) 
1

>  <r_epik_Ionization_Penalty>  (1) 
  0.0000

>  <r_epik_State_Penalty>  (1) 
  0.0000

>  <i_epik_Tot_Q>  (1) 
0

>  <s_m_job_name>  (1) 
glide-dock_SP_p38_all_ligs_no_cons_10_poses

>  <r_i_docking_score>  (1) 
-7.63391388570717

>  <r_i_glide_gscore>  (1) 
-7.63391388570717

>  <r_i_glide_emodel>  (1) 
-59.7863634142566

>  <index_string>  (1) 
31:0:0

$$$$
