5:0:0
     RDKit          3D

 41 43  0  0  1  0  0  0  0  0999 V2000
   32.2349   39.7930   26.9713 C   0  0  0  0  0  0  0  0  0  0  0  0
   33.0073   38.8268   26.0647 C   0  0  0  0  0  0  0  0  0  0  0  0
   34.0551   38.0288   26.8614 C   0  0  0  0  0  0  0  0  0  0  0  0
   33.6139   39.5493   24.9524 N   0  0  0  0  0  0  0  0  0  0  0  0
   34.0011   38.9687   23.7608 C   0  0  0  0  0  0  0  0  0  0  0  0
   33.8819   37.6472   23.6522 N   0  0  0  0  0  0  0  0  0  0  0  0
   34.4683   39.7958   22.8258 N   0  0  0  0  0  0  0  0  0  0  0  0
   34.8609   39.2270   21.6657 C   0  0  0  0  0  0  0  0  0  0  0  0
   34.8038   37.8327   21.4678 C   0  0  0  0  0  0  0  0  0  0  0  0
   34.2839   37.0466   22.5143 C   0  0  0  0  0  0  0  0  0  0  0  0
   35.2719   37.1594   20.2638 C   0  0  0  0  0  0  0  0  0  0  0  0
   35.1798   35.8264   20.1437 C   0  0  0  0  0  0  0  0  0  0  0  0
   34.5522   34.9953   21.1759 C   0  0  0  0  0  0  0  0  0  0  0  0
   34.3360   33.8020   20.9805 O   0  0  0  0  0  0  0  0  0  0  0  0
   34.2041   35.6251   22.3363 N   0  0  0  0  0  0  0  0  0  0  0  0
   33.6838   34.8375   23.4655 C   0  0  0  0  0  0  0  0  0  0  0  0
   35.7112   35.2332   19.0372 O   0  0  0  0  0  0  0  0  0  0  0  0
   34.9616   35.2301   17.8886 C   0  0  0  0  0  0  0  0  0  0  0  0
   33.5501   35.2236   17.9117 C   0  0  0  0  0  0  0  0  0  0  0  0
   32.8305   35.1495   16.7112 C   0  0  0  0  0  0  0  0  0  0  0  0
   35.6212   35.1493   16.6437 C   0  0  0  0  0  0  0  0  0  0  0  0
   36.9720   35.2100   16.5568 F   0  0  0  0  0  0  0  0  0  0  0  0
   34.8731   34.8878   15.4891 C   0  0  0  0  0  0  0  0  0  0  0  0
   33.4769   34.8961   15.5056 C   0  0  0  0  0  0  0  0  0  0  0  0
   32.7570   34.6726   14.3812 F   0  0  0  0  0  0  0  0  0  0  0  0
   31.7302   39.2538   27.7730 H   0  0  0  0  0  0  0  0  0  0  0  0
   31.4739   40.3344   26.4086 H   0  0  0  0  0  0  0  0  0  0  0  0
   32.8970   40.5275   27.4317 H   0  0  0  0  0  0  0  0  0  0  0  0
   32.2841   38.1225   25.6491 H   0  0  0  0  0  0  0  0  0  0  0  0
   33.5851   37.4669   27.6685 H   0  0  0  0  0  0  0  0  0  0  0  0
   34.5778   37.3062   26.2336 H   0  0  0  0  0  0  0  0  0  0  0  0
   34.8053   38.6854   27.3025 H   0  0  0  0  0  0  0  0  0  0  0  0
   33.7510   40.5502   25.0595 H   0  0  0  0  0  0  0  0  0  0  0  0
   35.2440   39.8849   20.9027 H   0  0  0  0  0  0  0  0  0  0  0  0
   35.7449   37.7517   19.4933 H   0  0  0  0  0  0  0  0  0  0  0  0
   33.7493   33.7562   23.3396 H   0  0  0  0  0  0  0  0  0  0  0  0
   34.2385   35.0756   24.3746 H   0  0  0  0  0  0  0  0  0  0  0  0
   32.6364   35.0856   23.6416 H   0  0  0  0  0  0  0  0  0  0  0  0
   32.9904   35.2788   18.8318 H   0  0  0  0  0  0  0  0  0  0  0  0
   31.7521   35.1610   16.7388 H   0  0  0  0  0  0  0  0  0  0  0  0
   35.3517   34.6862   14.5576 H   0  0  0  0  0  0  0  0  0  0  0  0
  1  2  1  0
  1 26  1  0
  1 27  1  0
  1 28  1  0
  2  3  1  0
  2  4  1  0
  2 29  1  0
  3 30  1  0
  3 31  1  0
  3 32  1  0
  4  5  1  0
  4 33  1  0
  5  6  2  0
  5  7  1  0
  6 10  1  0
  7  8  2  0
  8  9  1  0
  8 34  1  0
  9 10  2  0
  9 11  1  0
 10 15  1  0
 11 12  2  0
 11 35  1  0
 12 13  1  0
 12 17  1  0
 13 14  2  0
 13 15  1  0
 15 16  1  0
 16 36  1  0
 16 37  1  0
 16 38  1  0
 17 18  1  0
 18 19  2  0
 18 21  1  0
 19 20  1  0
 19 39  1  0
 20 24  2  0
 20 40  1  0
 21 22  1  0
 21 23  2  0
 23 24  1  0
 23 41  1  0
 24 25  1  0
M  END
>  <s_m_entry_id>  (1) 
275

>  <i_f3d_flags>  (1) 
0

>  <r_lp_tautomer_probability>  (1) 
1

>  <r_epik_Ionization_Penalty>  (1) 
  0.0000

>  <r_epik_State_Penalty>  (1) 
  0.0000

>  <i_epik_Tot_Q>  (1) 
0

>  <s_m_job_name>  (1) 
glide-dock_SP_p38_core_cons_top_1

>  <r_i_docking_score>  (1) 
-6.47256185810924

>  <r_i_glide_gscore>  (1) 
-6.47256185810924

>  <r_i_glide_emodel>  (1) 
-36.3697211480506

>  <index_string>  (1) 
5:0:0

$$$$
