13:0:0
     RDKit          3D

 37 39  0  0  1  0  0  0  0  0999 V2000
  -14.6650  -16.9320  -26.6450 N   0  0  0  0  0  0  0  0  0  0  0  0
  -16.2120  -16.0310  -24.4530 C   0  0  0  0  0  0  0  0  0  0  0  0
  -15.7430  -17.2840  -24.6600 N   0  0  0  0  0  0  0  0  0  0  0  0
  -15.0230  -17.7720  -25.7300 C   0  0  0  0  0  0  0  0  0  0  0  0
  -17.0260  -15.7910  -23.5640 O   0  0  0  0  0  0  0  0  0  0  0  0
  -14.9570  -15.5580  -26.5610 C   0  0  0  0  0  0  0  0  0  0  0  0
  -15.6740  -15.0520  -25.4700 C   0  0  0  0  0  0  0  0  0  0  0  0
  -15.8610  -13.6780  -25.3230 C   0  0  0  0  0  0  0  0  0  0  0  0
  -15.3690  -12.8130  -26.3000 C   0  0  0  0  0  0  0  0  0  0  0  0
  -14.7010  -13.3130  -27.4190 C   0  0  0  0  0  0  0  0  0  0  0  0
  -14.4960  -14.6870  -27.5570 C   0  0  0  0  0  0  0  0  0  0  0  0
  -13.8180  -15.1530  -28.6340 F   0  0  0  0  0  0  0  0  0  0  0  0
  -16.4840  -13.1860  -24.2310 F   0  0  0  0  0  0  0  0  0  0  0  0
  -14.7480  -19.2210  -25.7990 C   0  0  0  0  0  0  0  0  0  0  0  0
  -14.2260  -19.9270  -24.7050 C   0  0  0  0  0  0  0  0  0  0  0  0
  -15.0180  -19.9120  -26.9860 C   0  0  0  0  0  0  0  0  0  0  0  0
  -13.9450  -21.2830  -24.8160 C   0  0  0  0  0  0  0  0  0  0  0  0
  -14.7410  -21.2660  -27.0910 C   0  0  0  0  0  0  0  0  0  0  0  0
  -14.1900  -21.9600  -26.0150 C   0  0  0  0  0  0  0  0  0  0  0  0
  -13.7360  -23.4110  -26.1760 C   0  0  0  0  0  0  0  0  0  0  0  0
  -12.7890  -23.6140  -27.3590 C   0  0  0  0  0  0  0  0  0  0  0  0
  -14.9840  -24.2880  -26.2000 C   0  0  0  0  0  0  0  0  0  0  0  0
  -12.9630  -23.9050  -25.1160 O   0  0  0  0  0  0  0  0  0  0  0  0
  -15.9526  -17.9658  -23.9169 H   0  0  0  0  0  0  0  0  0  0  0  0
  -15.5085  -11.7277  -26.1879 H   0  0  0  0  0  0  0  0  0  0  0  0
  -14.3354  -12.6230  -28.1937 H   0  0  0  0  0  0  0  0  0  0  0  0
  -14.0384  -19.4047  -23.7552 H   0  0  0  0  0  0  0  0  0  0  0  0
  -15.4535  -19.3762  -27.8423 H   0  0  0  0  0  0  0  0  0  0  0  0
  -13.5275  -21.8272  -23.9561 H   0  0  0  0  0  0  0  0  0  0  0  0
  -14.9575  -21.7966  -28.0299 H   0  0  0  0  0  0  0  0  0  0  0  0
  -11.7772  -23.8309  -26.9857 H   0  0  0  0  0  0  0  0  0  0  0  0
  -13.1425  -24.4568  -27.9712 H   0  0  0  0  0  0  0  0  0  0  0  0
  -12.7660  -22.7004  -27.9712 H   0  0  0  0  0  0  0  0  0  0  0  0
  -15.2973  -24.5082  -25.1688 H   0  0  0  0  0  0  0  0  0  0  0  0
  -15.7937  -23.7593  -26.7243 H   0  0  0  0  0  0  0  0  0  0  0  0
  -14.7609  -25.2289  -26.7243 H   0  0  0  0  0  0  0  0  0  0  0  0
  -13.3757  -23.6412  -24.2557 H   0  0  0  0  0  0  0  0  0  0  0  0
  1  6  1  0
  1  4  2  0
  2  5  2  0
  2  3  1  0
  2  7  1  0
  3  4  1  0
  4 14  1  0
  6  7  2  0
  6 11  1  0
  7  8  1  0
  8 13  1  0
  8  9  2  0
  9 10  1  0
 10 11  2  0
 11 12  1  0
 14 15  2  0
 14 16  1  0
 15 17  1  0
 16 18  2  0
 17 19  2  0
 18 19  1  0
 19 20  1  0
 20 23  1  0
 20 21  1  0
 20 22  1  0
  3 24  1  0
  9 25  1  0
 10 26  1  0
 15 27  1  0
 16 28  1  0
 17 29  1  0
 18 30  1  0
 21 31  1  0
 21 32  1  0
 21 33  1  0
 22 34  1  0
 22 35  1  0
 22 36  1  0
 23 37  1  0
M  END
>  <s_m_entry_id>  (1) 
2446

>  <MODEL>  (1) 
1

>  <REMARK>  (1) 
 VINA RESULT:   -11.480      0.000      0.000
 INTER + INTRA:         -13.606
 INTER:                 -13.153
 INTRA:                  -0.453
 UNBOUND:                -0.448
  Name = 5l
  5 active torsions:
  status: ('A' for Active; 'I' for Inactive)
    1  A    between atoms: C_1  and  C_11
    2  A    between atoms: C_7  and  C_8
    3  A    between atoms: C_8  and  C_13
    4  A    between atoms: C_8  and  O_14
    5  A    between atoms: C_8  and  C_15
                            x       y       z     vdW  Elec       q    Type
                         _______ _______ _______ _____ _____    ______ ____

>  <TORSDO>  (1) 
F 3

>  <s_m_Source_Path>  (1) 
/projects/mai/users/kmzp800_harry/pmx_colab/docking_jobs/tnks2/vina_prep/output_mcs

>  <s_m_Source_File>  (1) 
tnks_mcs_vina__all_poses.sdf

>  <i_m_Source_File_Index>  (1) 
64

>  <index_string>  (1) 
13:0:0

$$$$
