20:0:0
     RDKit          3D

 43 46  0  0  1  0  0  0  0  0999 V2000
   33.3790   35.6180   19.9520 C   0  0  0  0  0  0  0  0  0  0  0  0
   33.3500   36.9030   20.5060 C   0  0  0  0  0  0  0  0  0  0  0  0
   33.0930   37.0660   21.8610 C   0  0  0  0  0  0  0  0  0  0  0  0
   33.0650   38.3300   22.4430 C   0  0  0  0  0  0  0  0  0  0  0  0
   32.8110   38.4540   23.7720 N   0  0  0  0  0  0  0  0  0  0  0  0
   32.5830   37.3590   24.5480 C   0  0  0  0  0  0  0  0  0  0  0  0
   32.3140   37.5020   25.9450 N   0  0  0  0  0  0  0  0  0  0  0  0
   32.6040   36.1180   23.9950 N   0  0  0  0  0  0  0  0  0  0  0  0
   32.8540   35.9400   22.6680 C   0  0  0  0  0  0  0  0  0  0  0  0
   32.8730   34.6870   22.1150 N   0  0  0  0  0  0  0  0  0  0  0  0
   32.6190   33.5220   22.9580 C   0  0  0  0  0  0  0  0  0  0  0  0
   33.1250   34.5130   20.7800 C   0  0  0  0  0  0  0  0  0  0  0  0
   33.1340   33.3540   20.2790 O   0  0  0  0  0  0  0  0  0  0  0  0
   32.3000   38.7940   26.6180 C   0  0  0  0  0  0  0  0  0  0  0  0
   31.4840   38.6930   27.8850 C   0  0  0  0  0  0  0  0  0  0  0  0
   32.1760   39.3470   28.9140 O   0  0  0  0  0  0  0  0  0  0  0  0
   33.5330   39.1810   28.6060 C   0  0  0  0  0  0  0  0  0  0  0  0
   33.6780   39.1410   27.1030 C   0  0  0  0  0  0  0  0  0  0  0  0
   33.6130   35.4170   18.5820 O   0  0  0  0  0  0  0  0  0  0  0  0
   37.2460   35.9280   18.1590 C   0  0  0  0  0  0  0  0  0  0  0  0
   35.9840   35.7940   18.7440 C   0  0  0  0  0  0  0  0  0  0  0  0
   34.8590   35.5340   17.9530 C   0  0  0  0  0  0  0  0  0  0  0  0
   35.0050   35.4440   16.5530 C   0  0  0  0  0  0  0  0  0  0  0  0
   33.9270   35.2810   15.7480 F   0  0  0  0  0  0  0  0  0  0  0  0
   36.2690   35.5810   15.9730 C   0  0  0  0  0  0  0  0  0  0  0  0
   37.3890   35.8130   16.7750 C   0  0  0  0  0  0  0  0  0  0  0  0
   38.6130   35.9420   16.2070 F   0  0  0  0  0  0  0  0  0  0  0  0
   33.5304   37.7819   19.8695 H   0  0  0  0  0  0  0  0  0  0  0  0
   33.2477   39.2247   21.8297 H   0  0  0  0  0  0  0  0  0  0  0  0
   32.1219   36.6553   26.4992 H   0  0  0  0  0  0  0  0  0  0  0  0
   32.6828   33.8144   24.0165 H   0  0  0  0  0  0  0  0  0  0  0  0
   31.6139   33.1283   22.7463 H   0  0  0  0  0  0  0  0  0  0  0  0
   33.3690   32.7457   22.7463 H   0  0  0  0  0  0  0  0  0  0  0  0
   31.9050   39.5314   25.9038 H   0  0  0  0  0  0  0  0  0  0  0  0
   30.5047   39.1708   27.7345 H   0  0  0  0  0  0  0  0  0  0  0  0
   31.3273   37.6367   28.1488 H   0  0  0  0  0  0  0  0  0  0  0  0
   34.1123   40.0229   29.0131 H   0  0  0  0  0  0  0  0  0  0  0  0
   33.9098   38.2466   29.0476 H   0  0  0  0  0  0  0  0  0  0  0  0
   34.4048   38.3729   26.8000 H   0  0  0  0  0  0  0  0  0  0  0  0
   34.0487   40.0892   26.6865 H   0  0  0  0  0  0  0  0  0  0  0  0
   38.1264   36.1240   18.7887 H   0  0  0  0  0  0  0  0  0  0  0  0
   35.8740   35.8936   19.8339 H   0  0  0  0  0  0  0  0  0  0  0  0
   36.3824   35.5059   14.8814 H   0  0  0  0  0  0  0  0  0  0  0  0
  1  2  2  0
  1 12  1  0
  1 19  1  0
  2  3  1  0
  2 28  1  0
  3  4  2  0
  3  9  1  0
  4  5  1  0
  4 29  1  0
  5  6  2  0
  6  7  1  0
  6  8  1  0
  7 14  1  0
  7 30  1  0
  8  9  2  0
  9 10  1  0
 10 11  1  0
 10 12  1  0
 11 31  1  0
 11 32  1  0
 11 33  1  0
 12 13  2  0
 14 18  1  0
 14 15  1  0
 14 34  1  0
 15 16  1  0
 15 35  1  0
 15 36  1  0
 16 17  1  0
 17 18  1  0
 17 37  1  0
 17 38  1  0
 18 39  1  0
 18 40  1  0
 19 22  1  0
 20 21  2  0
 20 26  1  0
 20 41  1  0
 21 22  1  0
 21 42  1  0
 22 23  2  0
 23 24  1  0
 23 25  1  0
 25 26  2  0
 25 43  1  0
 26 27  1  0
M  END
>  <s_m_entry_id>  (1) 
1375

>  <MODEL>  (1) 
1

>  <REMARK>  (1) 
 VINA RESULT:    -8.136      0.000      0.000
 INTER + INTRA:         -10.008
 INTER:                  -9.562
 INTRA:                  -0.445
 UNBOUND:                -0.445
  Name = /scratch/kmzp800/tmp5g73gldd/tmpf7kvkzme.pdb
  4 active torsions:
  status: ('A' for Active; 'I' for Inactive)
    1  A    between atoms: C3_3  and  O1_4
    2  A    between atoms: O1_4  and  C4_5
    3  A    between atoms: N2_11  and  C9_12
    4  A    between atoms: N4_19  and  C14_20
                            x       y       z     vdW  Elec       q    Type
                         _______ _______ _______ _____ _____    ______ ____

>  <TORSDO>  (1) 
F 3

>  <grid_id>  (1) 
p38-prepared

>  <grid_path>  (1) 
/projects/mai/users/kmzp800_harry/pmx_colab/docking_jobs/p38/vina_docking/input_files/p38_vina.pdbqt

>  <grid_filename>  (1) 
p38_vina.pdbqt

>  <docking_score>  (1) 
-8.136

>  <compound_name>  (1) 
lig_p38a_2x

>  <index_string>  (1) 
20:0:0

>  <s_m_Source_Path>  (1) 
/projects/mai/users/kmzp800_harry/pmx_colab/docking_jobs/p38

>  <s_m_Source_File>  (1) 
p38_confs_vina_naive.sdf

>  <i_m_Source_File_Index>  (1) 
22

$$$$
