24:0:0
     RDKit          3D

 31 33  0  0  1  0  0  0  0  0999 V2000
  -14.7710  -17.2570  -26.4660 N   0  0  0  0  0  0  0  0  0  0  0  0
  -14.9990  -15.8790  -26.5030 C   0  0  0  0  0  0  0  0  0  0  0  0
  -15.7530  -15.2640  -25.4940 C   0  0  0  0  0  0  0  0  0  0  0  0
  -15.3610  -13.1420  -26.5270 C   0  0  0  0  0  0  0  0  0  0  0  0
  -14.6260  -13.7400  -27.5430 C   0  0  0  0  0  0  0  0  0  0  0  0
  -15.9370  -13.8830  -25.5010 C   0  0  0  0  0  0  0  0  0  0  0  0
  -14.4590  -15.1210  -27.5540 C   0  0  0  0  0  0  0  0  0  0  0  0
  -16.3780  -16.1320  -24.4220 C   0  0  0  0  0  0  0  0  0  0  0  0
  -16.0360  -17.4420  -24.5710 N   0  0  0  0  0  0  0  0  0  0  0  0
  -15.2460  -18.0210  -25.5460 C   0  0  0  0  0  0  0  0  0  0  0  0
  -17.1400  -15.7550  -23.5290 O   0  0  0  0  0  0  0  0  0  0  0  0
  -14.9950  -19.4720  -25.5550 C   0  0  0  0  0  0  0  0  0  0  0  0
  -14.9050  -20.1360  -26.7860 C   0  0  0  0  0  0  0  0  0  0  0  0
  -14.8400  -20.1980  -24.3690 C   0  0  0  0  0  0  0  0  0  0  0  0
  -14.6580  -21.4940  -26.8350 C   0  0  0  0  0  0  0  0  0  0  0  0
  -14.5730  -21.5600  -24.4220 C   0  0  0  0  0  0  0  0  0  0  0  0
  -14.4820  -22.2160  -25.6570 C   0  0  0  0  0  0  0  0  0  0  0  0
  -14.2220  -23.5530  -25.7080 O   0  0  0  0  0  0  0  0  0  0  0  0
  -13.1220  -23.8120  -26.6950 C   0  0  0  0  0  0  0  0  0  0  0  0
  -15.4912  -12.0498  -26.5344 H   0  0  0  0  0  0  0  0  0  0  0  0
  -14.1776  -13.1236  -28.3361 H   0  0  0  0  0  0  0  0  0  0  0  0
  -16.5247  -13.3899  -24.7126 H   0  0  0  0  0  0  0  0  0  0  0  0
  -13.9125  -15.6113  -28.3732 H   0  0  0  0  0  0  0  0  0  0  0  0
  -16.4165  -18.0864  -23.8633 H   0  0  0  0  0  0  0  0  0  0  0  0
  -15.0322  -19.5708  -27.7211 H   0  0  0  0  0  0  0  0  0  0  0  0
  -14.9294  -19.6912  -23.3968 H   0  0  0  0  0  0  0  0  0  0  0  0
  -14.6001  -22.0065  -27.8066 H   0  0  0  0  0  0  0  0  0  0  0  0
  -14.4322  -22.1267  -23.4898 H   0  0  0  0  0  0  0  0  0  0  0  0
  -12.1891  -24.0316  -26.1551 H   0  0  0  0  0  0  0  0  0  0  0  0
  -13.3911  -24.6714  -27.3268 H   0  0  0  0  0  0  0  0  0  0  0  0
  -12.9794  -22.9229  -27.3268 H   0  0  0  0  0  0  0  0  0  0  0  0
  1 10  2  0
  1  2  1  0
  2  3  2  0
  2  7  1  0
  3  8  1  0
  3  6  1  0
  4  6  2  0
  4  5  1  0
  5  7  2  0
  8 11  2  0
  8  9  1  0
  9 10  1  0
 10 12  1  0
 12 14  1  0
 12 13  2  0
 13 15  1  0
 14 16  2  0
 15 17  2  0
 16 17  1  0
 17 18  1  0
 18 19  1  0
  4 20  1  0
  5 21  1  0
  6 22  1  0
  7 23  1  0
  9 24  1  0
 13 25  1  0
 14 26  1  0
 15 27  1  0
 16 28  1  0
 19 29  1  0
 19 30  1  0
 19 31  1  0
M  END
>  <s_m_entry_id>  (1) 
2490

>  <MODEL>  (1) 
1

>  <REMARK>  (1) 
 VINA RESULT:   -10.618      0.000      0.000
 INTER + INTRA:         -12.110
 INTER:                 -11.832
 INTRA:                  -0.278
 UNBOUND:                -0.250
  Name = 1b
  3 active torsions:
  status: ('A' for Active; 'I' for Inactive)
    1  A    between atoms: C_1  and  C_16
    2  A    between atoms: C_7  and  O_27
    3  A    between atoms: O_27  and  C_28
                            x       y       z     vdW  Elec       q    Type
                         _______ _______ _______ _____ _____    ______ ____

>  <TORSDO>  (1) 
F 2

>  <s_m_Source_Path>  (1) 
/projects/mai/users/kmzp800_harry/pmx_colab/docking_jobs/tnks2/vina_prep/output_mcs

>  <s_m_Source_File>  (1) 
tnks_mcs_vina__all_poses.sdf

>  <i_m_Source_File_Index>  (1) 
108

>  <index_string>  (1) 
24:0:0

$$$$
