24:0:0
     RDKit          3D

 35 37  0  0  1  0  0  0  0  0999 V2000
   33.6430   36.0650   20.2800 C   0  0  0  0  0  0  0  0  0  0  0  0
   33.8140   37.4390   20.4840 C   0  0  0  0  0  0  0  0  0  0  0  0
   33.4500   38.0140   21.6950 C   0  0  0  0  0  0  0  0  0  0  0  0
   33.6150   39.3760   21.9270 C   0  0  0  0  0  0  0  0  0  0  0  0
   33.2480   39.9060   23.1220 N   0  0  0  0  0  0  0  0  0  0  0  0
   32.7200   39.1260   24.1030 C   0  0  0  0  0  0  0  0  0  0  0  0
   32.3460   39.7190   25.3470 N   0  0  0  0  0  0  0  0  0  0  0  0
   31.7770   38.9400   26.4340 C   0  0  0  0  0  0  0  0  0  0  0  0
   32.5510   37.7910   23.8930 N   0  0  0  0  0  0  0  0  0  0  0  0
   32.9040   37.2120   22.7110 C   0  0  0  0  0  0  0  0  0  0  0  0
   32.7300   35.8700   22.5040 N   0  0  0  0  0  0  0  0  0  0  0  0
   32.1570   35.0440   23.5640 C   0  0  0  0  0  0  0  0  0  0  0  0
   33.0850   35.2920   21.3130 C   0  0  0  0  0  0  0  0  0  0  0  0
   32.9170   34.0540   21.1320 O   0  0  0  0  0  0  0  0  0  0  0  0
   33.9780   35.4380   19.0660 O   0  0  0  0  0  0  0  0  0  0  0  0
   37.5570   35.9960   18.1560 C   0  0  0  0  0  0  0  0  0  0  0  0
   36.4020   35.8550   18.9310 C   0  0  0  0  0  0  0  0  0  0  0  0
   35.1610   35.6050   18.3240 C   0  0  0  0  0  0  0  0  0  0  0  0
   35.0980   35.4840   16.9280 C   0  0  0  0  0  0  0  0  0  0  0  0
   33.9140   35.2300   16.3180 F   0  0  0  0  0  0  0  0  0  0  0  0
   36.2530   35.6250   16.1540 C   0  0  0  0  0  0  0  0  0  0  0  0
   37.4820   35.8830   16.7670 C   0  0  0  0  0  0  0  0  0  0  0  0
   38.5990   36.0200   16.0140 F   0  0  0  0  0  0  0  0  0  0  0  0
   34.2372   38.0645   19.6842 H   0  0  0  0  0  0  0  0  0  0  0  0
   34.0414   40.0213   21.1448 H   0  0  0  0  0  0  0  0  0  0  0  0
   32.4839   40.7313   25.4781 H   0  0  0  0  0  0  0  0  0  0  0  0
   32.0910   39.3698   27.3966 H   0  0  0  0  0  0  0  0  0  0  0  0
   30.6794   38.9600   26.3641 H   0  0  0  0  0  0  0  0  0  0  0  0
   32.1300   37.9005   26.3641 H   0  0  0  0  0  0  0  0  0  0  0  0
   32.4421   35.4550   24.5437 H   0  0  0  0  0  0  0  0  0  0  0  0
   31.0608   35.0395   23.4732 H   0  0  0  0  0  0  0  0  0  0  0  0
   32.5367   34.0156   23.4732 H   0  0  0  0  0  0  0  0  0  0  0  0
   38.5241   36.1958   18.6406 H   0  0  0  0  0  0  0  0  0  0  0  0
   36.4661   35.9407   20.0258 H   0  0  0  0  0  0  0  0  0  0  0  0
   36.1946   35.5327   15.0594 H   0  0  0  0  0  0  0  0  0  0  0  0
  1  2  2  0
  1 13  1  0
  1 15  1  0
  2  3  1  0
  2 24  1  0
  3  4  2  0
  3 10  1  0
  4  5  1  0
  4 25  1  0
  5  6  2  0
  6  7  1  0
  6  9  1  0
  7  8  1  0
  7 26  1  0
  8 27  1  0
  8 28  1  0
  8 29  1  0
  9 10  2  0
 10 11  1  0
 11 12  1  0
 11 13  1  0
 12 30  1  0
 12 31  1  0
 12 32  1  0
 13 14  2  0
 15 18  1  0
 16 17  2  0
 16 22  1  0
 16 33  1  0
 17 18  1  0
 17 34  1  0
 18 19  2  0
 19 20  1  0
 19 21  1  0
 21 22  2  0
 21 35  1  0
 22 23  1  0
M  END
>  <s_m_entry_id>  (1) 
1379

>  <MODEL>  (1) 
1

>  <REMARK>  (1) 
 VINA RESULT:    -8.261      0.000      0.000
 INTER + INTRA:          -9.560
 INTER:                  -9.227
 INTRA:                  -0.333
 UNBOUND:                -0.333
  Name = /scratch/kmzp800/tmpu7f49tii/tmpa78wjtz0.pdb
  4 active torsions:
  status: ('A' for Active; 'I' for Inactive)
    1  A    between atoms: C3_3  and  O1_4
    2  A    between atoms: O1_4  and  C4_5
    3  A    between atoms: N2_11  and  C9_12
    4  A    between atoms: N4_15  and  C11_16
                            x       y       z     vdW  Elec       q    Type
                         _______ _______ _______ _____ _____    ______ ____

>  <TORSDO>  (1) 
F 2

>  <grid_id>  (1) 
p38-prepared

>  <grid_path>  (1) 
/projects/mai/users/kmzp800_harry/pmx_colab/docking_jobs/p38/vina_docking/input_files/p38_vina.pdbqt

>  <grid_filename>  (1) 
p38_vina.pdbqt

>  <docking_score>  (1) 
-8.261

>  <compound_name>  (1) 
lig_p38a_2v

>  <index_string>  (1) 
24:0:0

>  <s_m_Source_Path>  (1) 
/projects/mai/users/kmzp800_harry/pmx_colab/docking_jobs/p38

>  <s_m_Source_File>  (1) 
p38_confs_vina_naive.sdf

>  <i_m_Source_File_Index>  (1) 
26

$$$$
