18:0:0
     RDKit          3D

 37 38  0  0  1  0  0  0  0  0999 V2000
   42.3730   12.8190   15.7480 C   0  0  0  0  0  0  0  0  0  0  0  0
   43.4380   13.7100   16.7040 S   0  0  0  0  0  0  0  0  0  0  0  0
   43.3350   15.1580   15.8600 C   0  0  0  0  0  0  0  0  0  0  0  0
   42.4640   14.9590   14.7800 C   0  0  0  0  0  0  0  0  0  0  0  0
   41.9120   13.6670   14.7280 C   0  0  0  0  0  0  0  0  0  0  0  0
   40.7010   13.1750   13.3250 Br  0  0  0  0  0  0  0  0  0  0  0  0
   42.5810    9.1900   16.8590 C   0  0  0  0  0  0  0  0  0  0  0  0
   42.9250   10.5240   16.6340 C   0  0  0  0  0  0  0  0  0  0  0  0
   42.0300   11.3990   16.0030 C   0  0  0  0  0  0  0  0  0  0  0  0
   40.7810   10.9050   15.6000 C   0  0  0  0  0  0  0  0  0  0  0  0
   40.4230    9.5670   15.8200 C   0  0  0  0  0  0  0  0  0  0  0  0
   41.3320    8.7140   16.4530 C   0  0  0  0  0  0  0  0  0  0  0  0
   39.1510    9.0450   15.4160 N   0  0  0  0  0  0  0  0  0  0  0  0
   38.9130    8.0400   14.4220 C   0  0  0  0  0  0  0  0  0  0  0  0
   39.8650    7.4960   13.8010 O   0  0  0  0  0  0  0  0  0  0  0  0
   37.5180    7.6080   14.1420 C   0  0  0  0  0  0  0  0  0  0  0  0
   36.8400    8.6110   13.2310 C   0  0  0  0  0  0  0  0  0  0  0  0
   43.9650   16.4080   16.3110 C   0  0  0  0  0  0  0  0  0  0  0  0
   44.0530   17.3850   15.5210 O   0  0  0  0  0  0  0  0  0  0  0  0
   44.5300   16.5070   17.5750 O   0  0  0  0  0  0  0  0  0  0  0  0
   42.1620   15.9090   13.7960 O   0  0  0  0  0  0  0  0  0  0  0  0
   41.2180   16.9570   13.9820 C   0  0  0  0  0  0  0  0  0  0  0  0
   40.4460   17.1850   12.7280 C   0  0  0  0  0  0  0  0  0  0  0  0
   41.0420   17.2400   11.6220 O   0  0  0  0  0  0  0  0  0  0  0  0
   39.0630   17.2990   12.7760 O   0  0  0  0  0  0  0  0  0  0  0  0
   43.2928    8.5142   17.3556 H   0  0  0  0  0  0  0  0  0  0  0  0
   43.9101   10.8929   16.9557 H   0  0  0  0  0  0  0  0  0  0  0  0
   40.0688   11.5795   15.1021 H   0  0  0  0  0  0  0  0  0  0  0  0
   41.0623    7.6627   16.6322 H   0  0  0  0  0  0  0  0  0  0  0  0
   38.3219    9.4321   15.8889 H   0  0  0  0  0  0  0  0  0  0  0  0
   37.5326    6.6228   13.6529 H   0  0  0  0  0  0  0  0  0  0  0  0
   36.9616    7.5452   15.0888 H   0  0  0  0  0  0  0  0  0  0  0  0
   36.3267    9.3703   13.8392 H   0  0  0  0  0  0  0  0  0  0  0  0
   37.5946    9.0984   12.5962 H   0  0  0  0  0  0  0  0  0  0  0  0
   36.1064    8.0924   12.5962 H   0  0  0  0  0  0  0  0  0  0  0  0
   40.5245   16.6817   14.7903 H   0  0  0  0  0  0  0  0  0  0  0  0
   41.7550   17.8803   14.2449 H   0  0  0  0  0  0  0  0  0  0  0  0
  1  9  1  0
  1  2  1  0
  1  5  2  0
  2  3  1  0
  3 18  1  0
  3  4  2  0
  4  5  1  0
  4 21  1  0
  5  6  1  0
  7  8  2  0
  7 12  1  0
  7 26  1  0
  8  9  1  0
  8 27  1  0
  9 10  2  0
 10 11  1  0
 10 28  1  0
 11 12  2  0
 11 13  1  0
 12 29  1  0
 13 14  1  0
 13 30  1  0
 14 15  2  0
 14 16  1  0
 16 17  1  0
 16 31  1  0
 16 32  1  0
 17 33  1  0
 17 34  1  0
 17 35  1  0
 18 20  1  0
 18 19  2  0
 21 22  1  0
 22 23  1  0
 22 36  1  0
 22 37  1  0
 23 25  1  0
 23 24  2  0
M  CHG  2  20  -1  25  -1
M  END
>  <s_m_entry_id>  (1) 
1235

>  <MODEL>  (1) 
2

>  <REMARK>  (1) 
 VINA RESULT:    -6.934      2.215      3.868
 INTER + INTRA:         -10.418
 INTER:                 -10.377
 INTRA:                  -0.041
 UNBOUND:                -0.647
  Name = /scratch/kmzp800/tmp85kvjvt7/tmpqfzjzdyg.pdb
  8 active torsions:
  status: ('A' for Active; 'I' for Inactive)
    1  A    between atoms: C3_3  and  C4_4
    2  A    between atoms: C5_6  and  C6_7
    3  A    between atoms: C7_10  and  O3_11
    4  A    between atoms: O3_11  and  C8_12
    5  A    between atoms: C8_12  and  C9_13
    6  A    between atoms: C12_19  and  N1_20
    7  A    between atoms: C13_21  and  C14_23
    8  A    between atoms: C14_23  and  C15_24
                            x       y       z     vdW  Elec       q    Type
                         _______ _______ _______ _____ _____    ______ ____

>  <TORSDO>  (1) 
F 7

>  <grid_id>  (1) 
ptp1b-prepared

>  <grid_path>  (1) 
ptp1b_vina.pdbqt

>  <grid_filename>  (1) 
ptp1b_vina.pdbqt

>  <docking_score>  (1) 
-6.934

>  <compound_name>  (1) 
lig_23468

>  <index_string>  (1) 
18:0:0

>  <s_m_Source_Path>  (1) 
/projects/mai/users/kmzp800_harry/pmx_colab/docking_jobs/ptp1b

>  <s_m_Source_File>  (1) 
ptp1b_confs_vina_mcs.sdf

>  <i_m_Source_File_Index>  (1) 
19

$$$$
