12:0:0
     RDKit          3D

 48 51  0  0  1  0  0  0  0  0999 V2000
  -14.4483  -14.8038  -27.6447 C   0  0  0  0  0  0  0  0  0  0  0  0
  -15.0214  -15.6323  -26.6564 C   0  0  0  0  0  0  0  0  0  0  0  0
  -14.5383  -13.4228  -27.5337 C   0  0  0  0  0  0  0  0  0  0  0  0
  -15.7353  -15.0369  -25.5983 C   0  0  0  0  0  0  0  0  0  0  0  0
  -14.8658  -17.0275  -26.7536 N   0  0  0  0  0  0  0  0  0  0  0  0
  -15.2481  -12.8467  -26.4958 C   0  0  0  0  0  0  0  0  0  0  0  0
  -15.8668  -13.6444  -25.5170 C   0  0  0  0  0  0  0  0  0  0  0  0
  -16.3722  -15.9512  -24.6056 C   0  0  0  0  0  0  0  0  0  0  0  0
  -16.1285  -17.2507  -24.8153 N   0  0  0  0  0  0  0  0  0  0  0  0
  -17.0507  -15.5751  -23.6654 O   0  0  0  0  0  0  0  0  0  0  0  0
  -15.3826  -17.7955  -25.8529 C   0  0  0  0  0  0  0  0  0  0  0  0
  -15.2176  -19.2741  -25.9371 C   0  0  0  0  0  0  0  0  0  0  0  0
  -15.4615  -20.0961  -24.8193 C   0  0  0  0  0  0  0  0  0  0  0  0
  -15.2474  -21.4834  -24.9048 C   0  0  0  0  0  0  0  0  0  0  0  0
  -14.7741  -22.0648  -26.0902 C   0  0  0  0  0  0  0  0  0  0  0  0
  -14.5331  -21.2380  -27.1974 C   0  0  0  0  0  0  0  0  0  0  0  0
  -14.7781  -19.8646  -27.1429 C   0  0  0  0  0  0  0  0  0  0  0  0
  -15.3508  -11.5106  -26.4963 F   0  0  0  0  0  0  0  0  0  0  0  0
  -14.5452  -23.4386  -26.1703 N   0  0  0  0  0  0  0  0  0  0  0  0
  -13.1842  -23.9512  -26.1994 C   0  0  0  0  0  0  0  0  0  0  0  0
  -12.9740  -24.8658  -27.4152 C   0  0  0  0  0  0  0  0  0  0  0  0
  -14.0570  -25.8705  -27.5361 N   0  0  0  0  0  0  0  0  0  0  0  0
  -15.3906  -25.2328  -27.6161 C   0  0  0  0  0  0  0  0  0  0  0  0
  -15.6656  -24.3396  -26.3988 C   0  0  0  0  0  0  0  0  0  0  0  0
  -13.8270  -26.7969  -28.6611 C   0  0  0  0  0  0  0  0  0  0  0  0
  -14.1151  -12.7912  -28.3054 H   0  0  0  0  0  0  0  0  0  0  0  0
  -16.4571  -13.2004  -24.7195 H   0  0  0  0  0  0  0  0  0  0  0  0
  -16.5334  -17.9067  -24.1678 H   0  0  0  0  0  0  0  0  0  0  0  0
  -15.7949  -19.6899  -23.8850 H   0  0  0  0  0  0  0  0  0  0  0  0
  -15.4452  -22.0863  -24.0296 H   0  0  0  0  0  0  0  0  0  0  0  0
  -14.1435  -21.6374  -28.1127 H   0  0  0  0  0  0  0  0  0  0  0  0
  -14.5559  -19.2540  -28.0008 H   0  0  0  0  0  0  0  0  0  0  0  0
  -12.4592  -23.1441  -26.2366 H   0  0  0  0  0  0  0  0  0  0  0  0
  -12.9932  -24.4901  -25.2833 H   0  0  0  0  0  0  0  0  0  0  0  0
  -12.0176  -25.3755  -27.3290 H   0  0  0  0  0  0  0  0  0  0  0  0
  -12.9336  -24.2724  -28.3380 H   0  0  0  0  0  0  0  0  0  0  0  0
  -16.1613  -26.0049  -27.6803 H   0  0  0  0  0  0  0  0  0  0  0  0
  -15.4565  -24.6413  -28.5400 H   0  0  0  0  0  0  0  0  0  0  0  0
  -15.8108  -24.9490  -25.5180 H   0  0  0  0  0  0  0  0  0  0  0  0
  -16.5881  -23.7898  -26.5621 H   0  0  0  0  0  0  0  0  0  0  0  0
  -13.8043  -26.2544  -29.6061 H   0  0  0  0  0  0  0  0  0  0  0  0
  -12.8823  -27.3146  -28.5351 H   0  0  0  0  0  0  0  0  0  0  0  0
  -14.6201  -27.5380  -28.7063 H   0  0  0  0  0  0  0  0  0  0  0  0
  -14.0463  -26.4093  -26.6798 H   0  0  0  0  0  0  0  0  0  0  0  0
  -13.8514  -15.3675  -28.8710 C   0  0  0  0  0  0  0  0  0  0  0  0
  -14.3547  -16.2845  -29.1872 H   0  0  0  0  0  0  0  0  0  0  0  0
  -13.8131  -14.6494  -29.7000 H   0  0  0  0  0  0  0  0  0  0  0  0
  -12.8438  -15.5826  -28.6002 H   0  0  0  0  0  0  0  0  0  0  0  0
  1  2  2  0
  1  3  1  0
  1 45  1  0
  2  4  1  0
  2  5  1  0
  3  6  2  0
  3 26  1  0
  4  7  2  0
  4  8  1  0
  5 11  2  0
  6  7  1  0
  6 18  1  0
  7 27  1  0
  8  9  1  0
  8 10  2  0
  9 11  1  0
  9 28  1  0
 11 12  1  0
 12 13  2  0
 12 17  1  0
 13 14  1  0
 13 29  1  0
 14 15  2  0
 14 30  1  0
 15 16  1  0
 15 19  1  0
 16 17  2  0
 16 31  1  0
 17 32  1  0
 19 20  1  0
 19 24  1  0
 20 21  1  0
 20 33  1  0
 20 34  1  0
 21 22  1  0
 21 35  1  0
 21 36  1  0
 22 23  1  0
 22 25  1  0
 22 44  1  0
 23 24  1  0
 23 37  1  0
 23 38  1  0
 24 39  1  0
 24 40  1  0
 25 41  1  0
 25 42  1  0
 25 43  1  0
 45 46  1  0
 45 47  1  0
 45 48  1  0
M  CHG  1  22   1
M  END
>  <s_m_entry_id>  (1) 
509

>  <Name>  (1) 
8b

>  <IC50[nM]>  (1) 
1.8

>  <s_m_Source_Path>  (1) 
/projects/mai/users/kmzp800_harry/pmx_colab/docking_jobs/tnks2

>  <s_m_Source_File>  (1) 
tnks2_lig.sdf

>  <i_m_Source_File_Index>  (1) 
14

>  <s_m_job_name>  (1) 
glide-dock_SP_tnks_mcs_fallabck

>  <r_i_docking_score>  (1) 
-10.0346550157432

>  <r_i_glide_gscore>  (1) 
-10.0346550157432

>  <r_i_glide_emodel>  (1) 
-27.9218181674051

>  <index_string>  (1) 
12:0:0

$$$$
