15:0:0
     RDKit          3D

 39 43  0  0  1  0  0  0  0  0999 V2000
   -1.9641    1.0328   11.8973 N   0  0  0  0  0  0  0  0  0  0  0  0
   -2.1896    2.1489   11.0712 C   0  0  0  0  0  0  0  0  0  0  0  0
   -3.5261    2.4039   10.6914 C   0  0  0  0  0  0  0  0  0  0  0  0
   -3.8484    3.4971    9.8640 C   0  0  0  0  0  0  0  0  0  0  0  0
   -2.8306    4.3491    9.3962 C   0  0  0  0  0  0  0  0  0  0  0  0
   -1.4918    4.0940    9.7468 C   0  0  0  0  0  0  0  0  0  0  0  0
   -1.1719    3.0017   10.5768 C   0  0  0  0  0  0  0  0  0  0  0  0
   -0.8820    0.6866   12.7252 C   0  0  0  0  0  0  0  0  0  0  0  0
    0.2361    1.3454   12.6483 N   0  0  0  0  0  0  0  0  0  0  0  0
    1.3006    1.0052   13.4513 C   0  0  0  0  0  0  0  0  0  0  0  0
    1.2286   -0.0279   14.3591 C   0  0  0  0  0  0  0  0  0  0  0  0
    0.0570   -0.7117   14.4488 N   0  0  0  0  0  0  0  0  0  0  0  0
   -0.3313   -1.7729   15.2467 C   0  0  0  0  0  0  0  0  0  0  0  0
   -1.6332   -2.0476   14.9244 C   0  0  0  0  0  0  0  0  0  0  0  0
   -2.0903   -1.1841   13.9355 N   0  0  0  0  0  0  0  0  0  0  0  0
   -1.0587   -0.3882   13.6431 C   0  0  0  0  0  0  0  0  0  0  0  0
    2.5254    1.8203   13.2530 C   0  0  0  0  0  0  0  0  0  0  0  0
    3.8006    1.3505   13.6539 C   0  0  0  0  0  0  0  0  0  0  0  0
    4.9655    2.1216   13.4583 C   0  0  0  0  0  0  0  0  0  0  0  0
    4.9050    3.3782   12.8182 C   0  0  0  0  0  0  0  0  0  0  0  0
    5.8207    4.4038   12.4108 C   0  0  0  0  0  0  0  0  0  0  0  0
    5.2069    5.3858   11.7948 N   0  0  0  0  0  0  0  0  0  0  0  0
    3.8893    5.0628   11.8223 N   0  0  0  0  0  0  0  0  0  0  0  0
    3.6266    3.8403   12.4169 C   0  0  0  0  0  0  0  0  0  0  0  0
    2.4571    3.0956   12.6403 C   0  0  0  0  0  0  0  0  0  0  0  0
   -2.7299    0.3747   11.9620 H   0  0  0  0  0  0  0  0  0  0  0  0
   -4.3163    1.7482   11.0212 H   0  0  0  0  0  0  0  0  0  0  0  0
   -4.8753    3.6775    9.5826 H   0  0  0  0  0  0  0  0  0  0  0  0
   -3.0740    5.1870    8.7564 H   0  0  0  0  0  0  0  0  0  0  0  0
   -0.7064    4.7336    9.3704 H   0  0  0  0  0  0  0  0  0  0  0  0
   -0.1308    2.8303   10.7952 H   0  0  0  0  0  0  0  0  0  0  0  0
    2.0322   -0.3341   15.0209 H   0  0  0  0  0  0  0  0  0  0  0  0
    0.3548   -2.2125   15.9563 H   0  0  0  0  0  0  0  0  0  0  0  0
   -2.2838   -2.8048   15.3379 H   0  0  0  0  0  0  0  0  0  0  0  0
    3.9050    0.3817   14.1185 H   0  0  0  0  0  0  0  0  0  0  0  0
    5.9210    1.7364   13.7853 H   0  0  0  0  0  0  0  0  0  0  0  0
    6.8959    4.4377   12.5227 H   0  0  0  0  0  0  0  0  0  0  0  0
    3.2033    5.6933   11.4316 H   0  0  0  0  0  0  0  0  0  0  0  0
    1.5102    3.5089   12.3260 H   0  0  0  0  0  0  0  0  0  0  0  0
  1  2  1  0
  1  8  1  0
  1 26  1  0
  2  3  2  0
  2  7  1  0
  3  4  1  0
  3 27  1  0
  4  5  2  0
  4 28  1  0
  5  6  1  0
  5 29  1  0
  6  7  2  0
  6 30  1  0
  7 31  1  0
  8  9  2  0
  8 16  1  0
  9 10  1  0
 10 11  2  0
 10 17  1  0
 11 12  1  0
 11 32  1  0
 12 13  1  0
 12 16  1  0
 13 14  2  0
 13 33  1  0
 14 15  1  0
 14 34  1  0
 15 16  2  0
 17 18  2  0
 17 25  1  0
 18 19  1  0
 18 35  1  0
 19 20  2  0
 19 36  1  0
 20 21  1  0
 20 24  1  0
 21 22  2  0
 21 37  1  0
 22 23  1  0
 23 24  1  0
 23 38  1  0
 24 25  2  0
 25 39  1  0
M  END
>  <s_m_entry_id>  (1) 
695

>  <IC50[nM]>  (1) 
26.8

>  <s_m_Source_Path>  (1) 
/projects/mai/users/kmzp800_harry/pmx_colab/docking_jobs/syk

>  <s_m_Source_File>  (1) 
tnks2_lig.sdf

>  <i_m_Source_File_Index>  (1) 
16

>  <s_m_job_name>  (1) 
glide-dock_SP_tnks2_no_const

>  <r_i_docking_score>  (1) 
-6.1282673523546

>  <r_i_glide_gscore>  (1) 
-6.1282673523546

>  <r_i_glide_emodel>  (1) 
-56.1783565169259

>  <index_string>  (1) 
15:0:0

$$$$
