20:0:0
     RDKit          3D

 37 39  0  0  1  0  0  0  0  0999 V2000
  -14.5470  -14.6750  -27.4780 C   0  0  0  0  0  0  0  0  0  0  0  0
  -15.0210  -15.5630  -26.5060 C   0  0  0  0  0  0  0  0  0  0  0  0
  -14.7720  -13.3050  -27.3280 C   0  0  0  0  0  0  0  0  0  0  0  0
  -15.7840  -15.0790  -25.4350 C   0  0  0  0  0  0  0  0  0  0  0  0
  -14.6960  -16.9290  -26.5880 N   0  0  0  0  0  0  0  0  0  0  0  0
  -15.4890  -12.8270  -26.2320 C   0  0  0  0  0  0  0  0  0  0  0  0
  -16.0150  -13.7140  -25.2890 C   0  0  0  0  0  0  0  0  0  0  0  0
  -16.3360  -16.0720  -24.4430 C   0  0  0  0  0  0  0  0  0  0  0  0
  -15.8530  -17.3220  -24.6540 N   0  0  0  0  0  0  0  0  0  0  0  0
  -17.1520  -15.8310  -23.5610 O   0  0  0  0  0  0  0  0  0  0  0  0
  -15.0840  -17.7850  -25.6980 C   0  0  0  0  0  0  0  0  0  0  0  0
  -13.8220  -15.1170  -28.5340 F   0  0  0  0  0  0  0  0  0  0  0  0
  -14.7830  -19.2280  -25.7830 C   0  0  0  0  0  0  0  0  0  0  0  0
  -14.2750  -19.9450  -24.6900 C   0  0  0  0  0  0  0  0  0  0  0  0
  -13.9850  -21.2990  -24.8130 C   0  0  0  0  0  0  0  0  0  0  0  0
  -14.1930  -21.9540  -26.0280 C   0  0  0  0  0  0  0  0  0  0  0  0
  -14.7180  -21.2450  -27.1100 C   0  0  0  0  0  0  0  0  0  0  0  0
  -15.0130  -19.8990  -26.9880 C   0  0  0  0  0  0  0  0  0  0  0  0
  -13.7070  -23.3920  -26.2160 C   0  0  0  0  0  0  0  0  0  0  0  0
  -12.7570  -23.5810  -27.4050 C   0  0  0  0  0  0  0  0  0  0  0  0
  -14.9510  -24.2800  -26.2680 C   0  0  0  0  0  0  0  0  0  0  0  0
  -12.9270  -23.8690  -25.1530 O   0  0  0  0  0  0  0  0  0  0  0  0
  -14.3821  -12.6004  -28.0773 H   0  0  0  0  0  0  0  0  0  0  0  0
  -15.6416  -11.7446  -26.1088 H   0  0  0  0  0  0  0  0  0  0  0  0
  -16.6052  -13.3377  -24.4405 H   0  0  0  0  0  0  0  0  0  0  0  0
  -16.0944  -18.0195  -23.9356 H   0  0  0  0  0  0  0  0  0  0  0  0
  -14.1052  -19.4337  -23.7310 H   0  0  0  0  0  0  0  0  0  0  0  0
  -13.5905  -21.8559  -23.9503 H   0  0  0  0  0  0  0  0  0  0  0  0
  -14.8982  -21.7598  -28.0653 H   0  0  0  0  0  0  0  0  0  0  0  0
  -15.4318  -19.3522  -27.8457 H   0  0  0  0  0  0  0  0  0  0  0  0
  -11.7413  -23.7831  -27.0343 H   0  0  0  0  0  0  0  0  0  0  0  0
  -13.0994  -24.4286  -28.0168 H   0  0  0  0  0  0  0  0  0  0  0  0
  -12.7489  -22.6669  -28.0168 H   0  0  0  0  0  0  0  0  0  0  0  0
  -15.2780  -24.5134  -25.2440 H   0  0  0  0  0  0  0  0  0  0  0  0
  -15.7567  -23.7517  -26.7987 H   0  0  0  0  0  0  0  0  0  0  0  0
  -14.7131  -25.2137  -26.7987 H   0  0  0  0  0  0  0  0  0  0  0  0
  -13.3471  -23.6121  -24.2942 H   0  0  0  0  0  0  0  0  0  0  0  0
  1  3  2  0
  1  2  1  0
  1 12  1  0
  2  4  2  0
  2  5  1  0
  3  6  1  0
  4  7  1  0
  4  8  1  0
  5 11  2  0
  6  7  2  0
  8 10  2  0
  8  9  1  0
  9 11  1  0
 11 13  1  0
 13 14  2  0
 13 18  1  0
 14 15  1  0
 15 16  2  0
 16 17  1  0
 16 19  1  0
 17 18  2  0
 19 22  1  0
 19 20  1  0
 19 21  1  0
  3 23  1  0
  6 24  1  0
  7 25  1  0
  9 26  1  0
 14 27  1  0
 15 28  1  0
 17 29  1  0
 18 30  1  0
 20 31  1  0
 20 32  1  0
 20 33  1  0
 21 34  1  0
 21 35  1  0
 21 36  1  0
 22 37  1  0
M  END
>  <s_m_entry_id>  (1) 
2479

>  <MODEL>  (1) 
1

>  <REMARK>  (1) 
 VINA RESULT:   -11.629      0.000      0.000
 INTER + INTRA:         -13.790
 INTER:                 -13.344
 INTRA:                  -0.446
 UNBOUND:                -0.462
  Name = 5f
  5 active torsions:
  status: ('A' for Active; 'I' for Inactive)
    1  A    between atoms: C_11  and  C_12
    2  A    between atoms: C_15  and  C_18
    3  A    between atoms: C_18  and  O_19
    4  A    between atoms: C_18  and  C_20
    5  A    between atoms: C_18  and  C_21
                            x       y       z     vdW  Elec       q    Type
                         _______ _______ _______ _____ _____    ______ ____

>  <TORSDO>  (1) 
F 3

>  <s_m_Source_Path>  (1) 
/projects/mai/users/kmzp800_harry/pmx_colab/docking_jobs/tnks2/vina_prep/output_mcs

>  <s_m_Source_File>  (1) 
tnks_mcs_vina__all_poses.sdf

>  <i_m_Source_File_Index>  (1) 
97

>  <index_string>  (1) 
20:0:0

$$$$
