3:0:0
     RDKit          3D

 48 52  0  0  1  0  0  0  0  0999 V2000
   -4.5239   -3.2312   15.4883 C   0  0  0  0  0  0  0  0  0  0  0  0
   -3.8826   -2.2617   14.6705 O   0  0  0  0  0  0  0  0  0  0  0  0
   -2.5278   -2.0720   14.8215 C   0  0  0  0  0  0  0  0  0  0  0  0
   -1.7357   -2.8313   15.7097 C   0  0  0  0  0  0  0  0  0  0  0  0
   -0.3625   -2.5881   15.8173 C   0  0  0  0  0  0  0  0  0  0  0  0
    0.2493   -1.5641   15.0752 C   0  0  0  0  0  0  0  0  0  0  0  0
    1.6196   -1.3517   15.2923 N   0  0  0  0  0  0  0  0  0  0  0  0
    2.5283   -0.4276   14.7285 C   0  0  0  0  0  0  0  0  0  0  0  0
    2.1905    0.3792   13.7601 N   0  0  0  0  0  0  0  0  0  0  0  0
    3.1187    1.2563   13.2278 C   0  0  0  0  0  0  0  0  0  0  0  0
    4.4196    1.2882   13.6812 C   0  0  0  0  0  0  0  0  0  0  0  0
    4.7549    0.4936   14.7267 N   0  0  0  0  0  0  0  0  0  0  0  0
    5.9073    0.3816   15.4805 C   0  0  0  0  0  0  0  0  0  0  0  0
    5.6192   -0.5029   16.4873 C   0  0  0  0  0  0  0  0  0  0  0  0
    4.3672   -1.0587   16.3273 N   0  0  0  0  0  0  0  0  0  0  0  0
    3.8337   -0.4120   15.2991 C   0  0  0  0  0  0  0  0  0  0  0  0
    2.6484    2.1674   12.1542 C   0  0  0  0  0  0  0  0  0  0  0  0
    3.5604    2.6682   11.1850 C   0  0  0  0  0  0  0  0  0  0  0  0
    3.1537    3.4944   10.1269 C   0  0  0  0  0  0  0  0  0  0  0  0
    1.7977    3.8639   10.0209 C   0  0  0  0  0  0  0  0  0  0  0  0
    1.0363    4.6516    9.1011 C   0  0  0  0  0  0  0  0  0  0  0  0
   -0.2608    4.6317    9.5319 C   0  0  0  0  0  0  0  0  0  0  0  0
   -0.3384    3.8915   10.6782 N   0  0  0  0  0  0  0  0  0  0  0  0
    0.8918    3.3865   11.0174 C   0  0  0  0  0  0  0  0  0  0  0  0
    1.2941    2.5530   12.0692 C   0  0  0  0  0  0  0  0  0  0  0  0
   -0.5391   -0.8075   14.1838 C   0  0  0  0  0  0  0  0  0  0  0  0
   -1.9224   -1.0568   14.0454 C   0  0  0  0  0  0  0  0  0  0  0  0
   -2.7378   -0.3220   13.2066 O   0  0  0  0  0  0  0  0  0  0  0  0
   -2.1799    0.7039   12.3920 C   0  0  0  0  0  0  0  0  0  0  0  0
   -5.5849   -3.2594   15.2414 H   0  0  0  0  0  0  0  0  0  0  0  0
   -4.4383   -2.9806   16.5470 H   0  0  0  0  0  0  0  0  0  0  0  0
   -4.1209   -4.2309   15.3194 H   0  0  0  0  0  0  0  0  0  0  0  0
   -2.1554   -3.6071   16.3248 H   0  0  0  0  0  0  0  0  0  0  0  0
    0.2203   -3.1960   16.4888 H   0  0  0  0  0  0  0  0  0  0  0  0
    2.0660   -2.0206   15.9120 H   0  0  0  0  0  0  0  0  0  0  0  0
    5.1965    1.9335   13.2879 H   0  0  0  0  0  0  0  0  0  0  0  0
    6.7765    0.9741   15.2266 H   0  0  0  0  0  0  0  0  0  0  0  0
    6.1851   -0.7763   17.3400 H   0  0  0  0  0  0  0  0  0  0  0  0
    4.6008    2.3981   11.2354 H   0  0  0  0  0  0  0  0  0  0  0  0
    3.8854    3.8326    9.4050 H   0  0  0  0  0  0  0  0  0  0  0  0
    1.4150    5.1606    8.2322 H   0  0  0  0  0  0  0  0  0  0  0  0
   -1.1518    5.0775    9.1345 H   0  0  0  0  0  0  0  0  0  0  0  0
   -1.2000    3.7655   11.1726 H   0  0  0  0  0  0  0  0  0  0  0  0
    0.5795    2.1864   12.7970 H   0  0  0  0  0  0  0  0  0  0  0  0
   -0.0814   -0.0216   13.6145 H   0  0  0  0  0  0  0  0  0  0  0  0
   -2.9685    1.1161   11.7595 H   0  0  0  0  0  0  0  0  0  0  0  0
   -1.7830    1.5218   12.9937 H   0  0  0  0  0  0  0  0  0  0  0  0
   -1.3997    0.3230   11.7331 H   0  0  0  0  0  0  0  0  0  0  0  0
  1  2  1  0
  1 30  1  0
  1 31  1  0
  1 32  1  0
  2  3  1  0
  3  4  2  0
  3 27  1  0
  4  5  1  0
  4 33  1  0
  5  6  2  0
  5 34  1  0
  6  7  1  0
  6 26  1  0
  7  8  1  0
  7 35  1  0
  8  9  2  0
  8 16  1  0
  9 10  1  0
 10 11  2  0
 10 17  1  0
 11 12  1  0
 11 36  1  0
 12 13  1  0
 12 16  1  0
 13 14  2  0
 13 37  1  0
 14 15  1  0
 14 38  1  0
 15 16  2  0
 17 18  2  0
 17 25  1  0
 18 19  1  0
 18 39  1  0
 19 20  2  0
 19 40  1  0
 20 21  1  0
 20 24  1  0
 21 22  2  0
 21 41  1  0
 22 23  1  0
 22 42  1  0
 23 24  1  0
 23 43  1  0
 24 25  2  0
 25 44  1  0
 26 27  2  0
 26 45  1  0
 27 28  1  0
 28 29  1  0
 29 46  1  0
 29 47  1  0
 29 48  1  0
M  END
>  <s_m_entry_id>  (1) 
1096

>  <IC50[nM]>  (1) 
2.7

>  <s_m_Source_Path>  (1) 
/projects/mai/users/kmzp800_harry/pmx_colab/docking_jobs/syk

>  <s_m_Source_File>  (1) 
tnks2_lig.sdf

>  <i_m_Source_File_Index>  (1) 
4

>  <s_m_job_name>  (1) 
glide-dock_SP_syk_mcs

>  <r_i_docking_score>  (1) 
-6.89275684406306

>  <r_i_glide_gscore>  (1) 
-6.89275684406306

>  <r_i_glide_emodel>  (1) 
-46.2163077952497

>  <index_string>  (1) 
3:0:0

$$$$
