24:0:0
     RDKit          3D

 35 37  0  0  1  0  0  0  0  0999 V2000
   33.1091   38.8121   26.0967 C   0  0  0  0  0  0  0  0  0  0  0  0
   33.6612   39.5500   24.9716 N   0  0  0  0  0  0  0  0  0  0  0  0
   34.0471   38.9691   23.7820 C   0  0  0  0  0  0  0  0  0  0  0  0
   34.4721   39.8001   22.8283 N   0  0  0  0  0  0  0  0  0  0  0  0
   34.8535   39.2231   21.6658 C   0  0  0  0  0  0  0  0  0  0  0  0
   33.9616   37.6427   23.6974 N   0  0  0  0  0  0  0  0  0  0  0  0
   34.3374   37.0397   22.5505 C   0  0  0  0  0  0  0  0  0  0  0  0
   34.8155   37.8261   21.4840 C   0  0  0  0  0  0  0  0  0  0  0  0
   34.2521   35.6196   22.3664 N   0  0  0  0  0  0  0  0  0  0  0  0
   33.7486   34.7922   23.4761 C   0  0  0  0  0  0  0  0  0  0  0  0
   34.5522   34.9958   21.1867 C   0  0  0  0  0  0  0  0  0  0  0  0
   34.3241   33.8007   21.0065 O   0  0  0  0  0  0  0  0  0  0  0  0
   35.1350   35.8146   20.1210 C   0  0  0  0  0  0  0  0  0  0  0  0
   35.2292   37.1586   20.2635 C   0  0  0  0  0  0  0  0  0  0  0  0
   35.3567   35.1917   18.9151 O   0  0  0  0  0  0  0  0  0  0  0  0
   36.2589   35.6940   18.0103 C   0  0  0  0  0  0  0  0  0  0  0  0
   37.5998   35.9575   18.3829 C   0  0  0  0  0  0  0  0  0  0  0  0
   38.5423   36.3494   17.4087 C   0  0  0  0  0  0  0  0  0  0  0  0
   35.8930   35.7949   16.6516 C   0  0  0  0  0  0  0  0  0  0  0  0
   34.6475   35.4582   16.2514 F   0  0  0  0  0  0  0  0  0  0  0  0
   36.8061   36.2833   15.7046 C   0  0  0  0  0  0  0  0  0  0  0  0
   38.1238   36.5740   16.0834 C   0  0  0  0  0  0  0  0  0  0  0  0
   38.9495   37.1493   15.1859 F   0  0  0  0  0  0  0  0  0  0  0  0
   32.8597   39.4957   26.9082 H   0  0  0  0  0  0  0  0  0  0  0  0
   33.8299   38.0839   26.4692 H   0  0  0  0  0  0  0  0  0  0  0  0
   32.2018   38.2836   25.8027 H   0  0  0  0  0  0  0  0  0  0  0  0
   33.7515   40.5554   25.0643 H   0  0  0  0  0  0  0  0  0  0  0  0
   35.2018   39.8815   20.8847 H   0  0  0  0  0  0  0  0  0  0  0  0
   34.2451   33.8209   23.5244 H   0  0  0  0  0  0  0  0  0  0  0  0
   33.9020   35.2510   24.4524 H   0  0  0  0  0  0  0  0  0  0  0  0
   32.6794   34.6174   23.3542 H   0  0  0  0  0  0  0  0  0  0  0  0
   35.5696   37.7886   19.4540 H   0  0  0  0  0  0  0  0  0  0  0  0
   37.9134   35.8342   19.4094 H   0  0  0  0  0  0  0  0  0  0  0  0
   39.5631   36.5581   17.6936 H   0  0  0  0  0  0  0  0  0  0  0  0
   36.4821   36.4693   14.6933 H   0  0  0  0  0  0  0  0  0  0  0  0
  1  2  1  0
  1 24  1  0
  1 25  1  0
  1 26  1  0
  2  3  1  0
  2 27  1  0
  3  4  2  0
  3  6  1  0
  4  5  1  0
  5  8  2  0
  5 28  1  0
  6  7  2  0
  7  8  1  0
  7  9  1  0
  8 14  1  0
  9 10  1  0
  9 11  1  0
 10 29  1  0
 10 30  1  0
 10 31  1  0
 11 12  2  0
 11 13  1  0
 13 14  2  0
 13 15  1  0
 14 32  1  0
 15 16  1  0
 16 17  2  0
 16 19  1  0
 17 18  1  0
 17 33  1  0
 18 22  2  0
 18 34  1  0
 19 20  1  0
 19 21  2  0
 21 22  1  0
 21 35  1  0
 22 23  1  0
M  END
>  <s_m_entry_id>  (1) 
262

>  <i_f3d_flags>  (1) 
0

>  <r_lp_tautomer_probability>  (1) 
1

>  <r_epik_Ionization_Penalty>  (1) 
  0.0000

>  <r_epik_State_Penalty>  (1) 
  0.0000

>  <i_epik_Tot_Q>  (1) 
0

>  <s_m_job_name>  (1) 
glide-dock_SP_p38_core_cons_top_1

>  <r_i_docking_score>  (1) 
-6.74584646967708

>  <r_i_glide_gscore>  (1) 
-6.74584646967708

>  <r_i_glide_emodel>  (1) 
-43.5281989862241

>  <index_string>  (1) 
24:0:0

$$$$
