8:0:0
     RDKit          3D

 43 46  0  0  1  0  0  0  0  0999 V2000
   38.9521   36.4582   15.9035 F   0  0  0  0  0  0  0  0  0  0  0  0
   37.9206   36.1522   16.7139 C   0  0  0  0  0  0  0  0  0  0  0  0
   38.0763   36.1938   18.1110 C   0  0  0  0  0  0  0  0  0  0  0  0
   36.9719   35.9493   18.9496 C   0  0  0  0  0  0  0  0  0  0  0  0
   37.1554   35.9493   20.2891 F   0  0  0  0  0  0  0  0  0  0  0  0
   35.7064   35.6405   18.3839 C   0  0  0  0  0  0  0  0  0  0  0  0
   35.5802   35.5493   16.9861 C   0  0  0  0  0  0  0  0  0  0  0  0
   36.6775   35.8212   16.1553 C   0  0  0  0  0  0  0  0  0  0  0  0
   34.5873   35.3441   19.1221 O   0  0  0  0  0  0  0  0  0  0  0  0
   34.3685   35.9755   20.3154 C   0  0  0  0  0  0  0  0  0  0  0  0
   34.4352   37.3222   20.4329 C   0  0  0  0  0  0  0  0  0  0  0  0
   34.0527   35.1212   21.4621 C   0  0  0  0  0  0  0  0  0  0  0  0
   34.0054   33.8968   21.3995 O   0  0  0  0  0  0  0  0  0  0  0  0
   33.8323   35.7576   22.6283 N   0  0  0  0  0  0  0  0  0  0  0  0
   33.9195   37.1520   22.8333 C   0  0  0  0  0  0  0  0  0  0  0  0
   34.2267   37.9675   21.7273 C   0  0  0  0  0  0  0  0  0  0  0  0
   33.7277   37.6854   24.0500 N   0  0  0  0  0  0  0  0  0  0  0  0
   33.8492   39.0062   24.1685 C   0  0  0  0  0  0  0  0  0  0  0  0
   34.1521   39.8701   23.1969 N   0  0  0  0  0  0  0  0  0  0  0  0
   34.3362   39.3511   21.9637 C   0  0  0  0  0  0  0  0  0  0  0  0
   33.6469   39.5493   25.4162 N   0  0  0  0  0  0  0  0  0  0  0  0
   33.0555   38.8515   26.5516 C   0  0  0  0  0  0  0  0  0  0  0  0
   33.2769   39.6372   27.8513 C   0  0  0  0  0  0  0  0  0  0  0  0
   32.6012   38.9209   29.0308 C   0  0  0  0  0  0  0  0  0  0  0  0
   31.2138   38.7493   28.7654 O   0  0  0  0  0  0  0  0  0  0  0  0
   30.9521   37.9493   27.6173 C   0  0  0  0  0  0  0  0  0  0  0  0
   31.5459   38.6169   26.3663 C   0  0  0  0  0  0  0  0  0  0  0  0
   33.6105   35.1945   23.4351 H   0  0  0  0  0  0  0  0  0  0  0  0
   39.0425   36.4105   18.5396 H   0  0  0  0  0  0  0  0  0  0  0  0
   34.6245   35.2976   16.5487 H   0  0  0  0  0  0  0  0  0  0  0  0
   36.5616   35.7909   15.0891 H   0  0  0  0  0  0  0  0  0  0  0  0
   34.6605   37.9488   19.5820 H   0  0  0  0  0  0  0  0  0  0  0  0
   34.5763   40.0412   21.1687 H   0  0  0  0  0  0  0  0  0  0  0  0
   33.7521   40.5575   25.4891 H   0  0  0  0  0  0  0  0  0  0  0  0
   33.5517   37.8849   26.6522 H   0  0  0  0  0  0  0  0  0  0  0  0
   32.8649   40.6436   27.7575 H   0  0  0  0  0  0  0  0  0  0  0  0
   34.3432   39.7527   28.0482 H   0  0  0  0  0  0  0  0  0  0  0  0
   32.7137   39.5105   29.9408 H   0  0  0  0  0  0  0  0  0  0  0  0
   33.0682   37.9528   29.2177 H   0  0  0  0  0  0  0  0  0  0  0  0
   29.8732   37.8376   27.5066 H   0  0  0  0  0  0  0  0  0  0  0  0
   31.3630   36.9483   27.7569 H   0  0  0  0  0  0  0  0  0  0  0  0
   31.3549   37.9916   25.4939 H   0  0  0  0  0  0  0  0  0  0  0  0
   31.0379   39.5653   26.1871 H   0  0  0  0  0  0  0  0  0  0  0  0
  1  2  1  0
  2  8  2  0
  2  3  1  0
  3  4  2  0
  3 29  1  0
  4  5  1  0
  4  6  1  0
  6  7  2  0
  6  9  1  0
  7  8  1  0
  7 30  1  0
  8 31  1  0
  9 10  1  0
 10 11  2  0
 10 12  1  0
 11 16  1  0
 11 32  1  0
 12 13  2  0
 12 14  1  0
 14 28  1  0
 14 15  1  0
 15 16  2  0
 15 17  1  0
 16 20  1  0
 17 18  2  0
 18 19  1  0
 18 21  1  0
 19 20  2  0
 20 33  1  0
 21 22  1  0
 21 34  1  0
 22 27  1  0
 22 23  1  0
 22 35  1  0
 23 24  1  0
 23 36  1  0
 23 37  1  0
 24 25  1  0
 24 38  1  0
 24 39  1  0
 25 26  1  0
 26 27  1  0
 26 40  1  0
 26 41  1  0
 27 42  1  0
 27 43  1  0
M  END
>  <s_m_entry_id>  (1) 
725

>  <i_f3d_flags>  (1) 
0

>  <r_lp_tautomer_probability>  (1) 
1

>  <r_epik_Ionization_Penalty>  (1) 
  0.2720

>  <r_epik_State_Penalty>  (1) 
  0.2641

>  <i_epik_Tot_Q>  (1) 
0

>  <s_m_job_name>  (1) 
glide-dock_SP_p38_all_ligs_no_cons_10_poses

>  <r_i_docking_score>  (1) 
-7.29653333636606

>  <r_i_glide_gscore>  (1) 
-7.56063333636606

>  <r_i_glide_emodel>  (1) 
-60.6944599512243

>  <index_string>  (1) 
8:0:0

$$$$
