32:0:0
     RDKit          3D

 43 47  0  0  1  0  0  0  0  0999 V2000
    6.2080    0.1350   15.8580 C   0  0  0  0  0  0  0  0  0  0  0  0
    5.8030    0.8990   14.8110 N   0  0  0  0  0  0  0  0  0  0  0  0
    4.5270    0.5230   14.6210 C   0  0  0  0  0  0  0  0  0  0  0  0
    3.6490    1.0090   13.6570 C   0  0  0  0  0  0  0  0  0  0  0  0
    4.0710    2.0200   12.7290 N   0  0  0  0  0  0  0  0  0  0  0  0
    2.3850    0.4910   13.6320 N   0  0  0  0  0  0  0  0  0  0  0  0
    1.9720   -0.4740   14.5130 C   0  0  0  0  0  0  0  0  0  0  0  0
    2.8820   -0.9490   15.4780 C   0  0  0  0  0  0  0  0  0  0  0  0
    4.1280   -0.4180   15.4810 N   0  0  0  0  0  0  0  0  0  0  0  0
    5.1680   -0.6890   16.2800 C   0  0  0  0  0  0  0  0  0  0  0  0
    0.5940   -1.0000   14.4410 C   0  0  0  0  0  0  0  0  0  0  0  0
   -0.3610   -0.4110   13.5710 C   0  0  0  0  0  0  0  0  0  0  0  0
   -1.6770   -0.9040   13.4950 C   0  0  0  0  0  0  0  0  0  0  0  0
   -1.9970   -1.9880   14.3050 C   0  0  0  0  0  0  0  0  0  0  0  0
   -3.1670   -2.6930   14.4640 C   0  0  0  0  0  0  0  0  0  0  0  0
   -2.9180   -3.6560   15.3870 N   0  0  0  0  0  0  0  0  0  0  0  0
   -1.6560   -3.5800   15.8030 N   0  0  0  0  0  0  0  0  0  0  0  0
   -1.0900   -2.5620   15.1420 C   0  0  0  0  0  0  0  0  0  0  0  0
    0.2190   -2.1000   15.2440 C   0  0  0  0  0  0  0  0  0  0  0  0
    3.2890    2.6180   11.6870 C   0  0  0  0  0  0  0  0  0  0  0  0
    3.8550    3.0200   10.4680 C   0  0  0  0  0  0  0  0  0  0  0  0
    3.0610    3.6010    9.4760 C   0  0  0  0  0  0  0  0  0  0  0  0
    1.6860    3.7870    9.6910 C   0  0  0  0  0  0  0  0  0  0  0  0
    1.1220    3.3860   10.9070 C   0  0  0  0  0  0  0  0  0  0  0  0
    1.9190    2.8060   11.8970 C   0  0  0  0  0  0  0  0  0  0  0  0
    0.8630    4.3650    8.7210 O   0  0  0  0  0  0  0  0  0  0  0  0
   -0.1290    5.3320    9.0320 C   0  0  0  0  0  0  0  0  0  0  0  0
    7.2116    0.1630   16.3074 H   0  0  0  0  0  0  0  0  0  0  0  0
    5.0416    2.3518   12.8221 H   0  0  0  0  0  0  0  0  0  0  0  0
    2.5910   -1.7234   16.2030 H   0  0  0  0  0  0  0  0  0  0  0  0
    5.1952   -1.4167   17.1044 H   0  0  0  0  0  0  0  0  0  0  0  0
   -0.0673    0.4451   12.9458 H   0  0  0  0  0  0  0  0  0  0  0  0
   -2.4210   -0.4510   12.8232 H   0  0  0  0  0  0  0  0  0  0  0  0
   -4.1193   -2.5116   13.9442 H   0  0  0  0  0  0  0  0  0  0  0  0
   -1.2018   -4.1876   16.4997 H   0  0  0  0  0  0  0  0  0  0  0  0
    0.9378   -2.5758   15.9274 H   0  0  0  0  0  0  0  0  0  0  0  0
    4.9313    2.8768   10.2919 H   0  0  0  0  0  0  0  0  0  0  0  0
    3.5144    3.9136    8.5238 H   0  0  0  0  0  0  0  0  0  0  0  0
    0.0457    3.5281   11.0844 H   0  0  0  0  0  0  0  0  0  0  0  0
    1.4654    2.4946   12.8495 H   0  0  0  0  0  0  0  0  0  0  0  0
   -0.2225    5.4232   10.1242 H   0  0  0  0  0  0  0  0  0  0  0  0
    0.1604    6.3041    8.6064 H   0  0  0  0  0  0  0  0  0  0  0  0
   -1.0934    5.0179    8.6064 H   0  0  0  0  0  0  0  0  0  0  0  0
  1 10  2  0
  1  2  1  0
  2  3  2  0
  3  9  1  0
  3  4  1  0
  4  5  1  0
  4  6  2  0
  5 20  1  0
  6  7  1  0
  7  8  2  0
  7 11  1  0
  8  9  1  0
  9 10  1  0
 11 19  1  0
 11 12  2  0
 12 13  1  0
 13 14  2  0
 14 15  1  0
 14 18  1  0
 15 16  2  0
 16 17  1  0
 17 18  1  0
 18 19  2  0
 20 25  1  0
 20 21  2  0
 21 22  1  0
 22 23  2  0
 23 24  1  0
 23 26  1  0
 24 25  2  0
 26 27  1  0
  1 28  1  0
  5 29  1  0
  8 30  1  0
 10 31  1  0
 12 32  1  0
 13 33  1  0
 15 34  1  0
 17 35  1  0
 19 36  1  0
 21 37  1  0
 22 38  1  0
 24 39  1  0
 25 40  1  0
 27 41  1  0
 27 42  1  0
 27 43  1  0
M  END
>  <s_m_entry_id>  (1) 
33

>  <MODEL>  (1) 
1

>  <REMARK>  (1) 
 VINA RESULT:    -9.329      0.000      0.000
 INTER + INTRA:         -11.194
 INTER:                 -10.965
 INTRA:                  -0.229
 UNBOUND:                -0.229
  Name = /scratch/kmzp800/tmpxxy0vkpu/tmpe2bpgb8v.pdb
  4 active torsions:
  status: ('A' for Active; 'I' for Inactive)
    1  A    between atoms: N2_5  and  C4_6
    2  A    between atoms: C7_9  and  O1_10
    3  A    between atoms: O1_10  and  C8_11
    4  A    between atoms: C11_15  and  C12_16
                            x       y       z     vdW  Elec       q    Type
                         _______ _______ _______ _____ _____    ______ ____

>  <TORSDO>  (1) 
F 3

>  <grid_id>  (1) 
syk-prepared

>  <grid_path>  (1) 
syk_vina.pdbqt

>  <grid_filename>  (1) 
syk_vina.pdbqt

>  <docking_score>  (1) 
-9.329

>  <compound_name>  (1) 
CHEMBL3265029

>  <index_string>  (1) 
32:0:0

>  <s_m_Source_Path>  (1) 
/projects/mai/users/kmzp800_harry/pmx_colab/docking_jobs/syk/vina_prep/output

>  <s_m_Source_File>  (1) 
ptp1b_docked_conformers.sdf

>  <i_m_Source_File_Index>  (1) 
33

$$$$
