15:0:0
     RDKit          3D

 51 54  0  0  1  0  0  0  0  0999 V2000
   -2.4595    4.2200    9.3672 C   0  0  0  0  0  0  0  0  0  0  0  0
   -1.0714    3.9079    9.6758 N   0  0  0  0  0  0  0  0  0  0  0  0
   -0.5890    3.7688   10.9185 C   0  0  0  0  0  0  0  0  0  0  0  0
   -1.2819    3.8862   11.9299 O   0  0  0  0  0  0  0  0  0  0  0  0
    0.8584    3.3890   11.0091 C   0  0  0  0  0  0  0  0  0  0  0  0
    1.7889    3.8519   10.0458 C   0  0  0  0  0  0  0  0  0  0  0  0
    3.1415    3.4927   10.1403 C   0  0  0  0  0  0  0  0  0  0  0  0
    3.5580    2.6728   11.1983 C   0  0  0  0  0  0  0  0  0  0  0  0
    2.6465    2.1653   12.1638 C   0  0  0  0  0  0  0  0  0  0  0  0
    1.2887    2.5523   12.0643 C   0  0  0  0  0  0  0  0  0  0  0  0
    3.1239    1.2479   13.2302 C   0  0  0  0  0  0  0  0  0  0  0  0
    4.4274    1.2782   13.6765 C   0  0  0  0  0  0  0  0  0  0  0  0
    4.7598    0.4764   14.7161 N   0  0  0  0  0  0  0  0  0  0  0  0
    5.9090    0.3704   15.4741 C   0  0  0  0  0  0  0  0  0  0  0  0
    5.6015   -0.4949   16.4943 C   0  0  0  0  0  0  0  0  0  0  0  0
    4.3505   -1.0418   16.3419 N   0  0  0  0  0  0  0  0  0  0  0  0
    3.8287   -0.4177   15.2893 C   0  0  0  0  0  0  0  0  0  0  0  0
    2.5248   -0.4352   14.7279 C   0  0  0  0  0  0  0  0  0  0  0  0
    1.6071   -1.3367   15.2987 N   0  0  0  0  0  0  0  0  0  0  0  0
    0.2424   -1.5594   15.0743 C   0  0  0  0  0  0  0  0  0  0  0  0
   -0.3686   -2.5901   15.8142 C   0  0  0  0  0  0  0  0  0  0  0  0
   -1.7398   -2.8529   15.6770 C   0  0  0  0  0  0  0  0  0  0  0  0
   -2.5179   -2.0997   14.7787 C   0  0  0  0  0  0  0  0  0  0  0  0
   -3.8548   -2.3698   14.6475 O   0  0  0  0  0  0  0  0  0  0  0  0
   -4.2029   -3.0189   13.4306 C   0  0  0  0  0  0  0  0  0  0  0  0
   -1.9255   -1.0585   14.0331 C   0  0  0  0  0  0  0  0  0  0  0  0
   -2.7402   -0.3224   13.2020 O   0  0  0  0  0  0  0  0  0  0  0  0
   -2.1681    0.7017   12.4005 C   0  0  0  0  0  0  0  0  0  0  0  0
   -0.5454   -0.8024   14.1824 C   0  0  0  0  0  0  0  0  0  0  0  0
    2.1955    0.3672   13.7511 N   0  0  0  0  0  0  0  0  0  0  0  0
   -2.6049    4.2422    8.2856 H   0  0  0  0  0  0  0  0  0  0  0  0
   -2.7335    5.1975    9.7701 H   0  0  0  0  0  0  0  0  0  0  0  0
   -3.1321    3.4708    9.7900 H   0  0  0  0  0  0  0  0  0  0  0  0
   -0.4402    3.7712    8.9008 H   0  0  0  0  0  0  0  0  0  0  0  0
    1.4707    4.4921    9.2351 H   0  0  0  0  0  0  0  0  0  0  0  0
    3.8565    3.8395    9.4057 H   0  0  0  0  0  0  0  0  0  0  0  0
    4.5999    2.4033   11.2478 H   0  0  0  0  0  0  0  0  0  0  0  0
    0.5630    2.2022   12.7882 H   0  0  0  0  0  0  0  0  0  0  0  0
    5.1940    1.9489   13.3061 H   0  0  0  0  0  0  0  0  0  0  0  0
    6.7774    0.9704   15.2456 H   0  0  0  0  0  0  0  0  0  0  0  0
    6.1423   -0.7468   17.3777 H   0  0  0  0  0  0  0  0  0  0  0  0
    2.0170   -1.9399   16.0065 H   0  0  0  0  0  0  0  0  0  0  0  0
    0.2107   -3.1917   16.4973 H   0  0  0  0  0  0  0  0  0  0  0  0
   -2.1808   -3.6439   16.2626 H   0  0  0  0  0  0  0  0  0  0  0  0
   -5.2846   -3.1577   13.3988 H   0  0  0  0  0  0  0  0  0  0  0  0
   -3.9123   -2.4431   12.5515 H   0  0  0  0  0  0  0  0  0  0  0  0
   -3.7452   -4.0078   13.3677 H   0  0  0  0  0  0  0  0  0  0  0  0
   -2.9526    1.1692   11.8058 H   0  0  0  0  0  0  0  0  0  0  0  0
   -1.7271    1.4805   13.0202 H   0  0  0  0  0  0  0  0  0  0  0  0
   -1.4174    0.3128   11.7105 H   0  0  0  0  0  0  0  0  0  0  0  0
   -0.1002   -0.0069   13.6164 H   0  0  0  0  0  0  0  0  0  0  0  0
  1  2  1  0
  1 31  1  0
  1 32  1  0
  1 33  1  0
  2  3  1  0
  2 34  1  0
  3  4  2  0
  3  5  1  0
  5  6  2  0
  5 10  1  0
  6  7  1  0
  6 35  1  0
  7  8  2  0
  7 36  1  0
  8  9  1  0
  8 37  1  0
  9 10  2  0
  9 11  1  0
 10 38  1  0
 11 12  2  0
 11 30  1  0
 12 13  1  0
 12 39  1  0
 13 14  1  0
 13 17  1  0
 14 15  2  0
 14 40  1  0
 15 16  1  0
 15 41  1  0
 16 17  2  0
 17 18  1  0
 18 19  1  0
 18 30  2  0
 19 20  1  0
 19 42  1  0
 20 21  2  0
 20 29  1  0
 21 22  1  0
 21 43  1  0
 22 23  2  0
 22 44  1  0
 23 24  1  0
 23 26  1  0
 24 25  1  0
 25 45  1  0
 25 46  1  0
 25 47  1  0
 26 27  1  0
 26 29  2  0
 27 28  1  0
 28 48  1  0
 28 49  1  0
 28 50  1  0
 29 51  1  0
M  END
>  <s_m_entry_id>  (1) 
1117

>  <IC50[nM]>  (1) 
50.2

>  <s_m_Source_Path>  (1) 
/projects/mai/users/kmzp800_harry/pmx_colab/docking_jobs/syk

>  <s_m_Source_File>  (1) 
tnks2_lig.sdf

>  <i_m_Source_File_Index>  (1) 
17

>  <s_m_job_name>  (1) 
glide-dock_SP_syk_mcs

>  <r_i_docking_score>  (1) 
-6.6025163812541

>  <r_i_glide_gscore>  (1) 
-6.6025163812541

>  <r_i_glide_emodel>  (1) 
-49.5616158176299

>  <index_string>  (1) 
15:0:0

$$$$
