18:0:0
     RDKit          3D

 47 51  0  0  1  0  0  0  0  0999 V2000
    5.7140   -0.5870   16.3890 C   0  0  0  0  0  0  0  0  0  0  0  0
    4.4350   -1.0220   16.2630 N   0  0  0  0  0  0  0  0  0  0  0  0
    3.9540   -0.2980   15.2380 C   0  0  0  0  0  0  0  0  0  0  0  0
    2.6710   -0.3610   14.7010 C   0  0  0  0  0  0  0  0  0  0  0  0
    1.6990   -1.2680   15.2410 N   0  0  0  0  0  0  0  0  0  0  0  0
    2.3820    0.4650   13.6520 N   0  0  0  0  0  0  0  0  0  0  0  0
    3.3040    1.3340   13.1300 C   0  0  0  0  0  0  0  0  0  0  0  0
    4.5950    1.3770   13.6930 C   0  0  0  0  0  0  0  0  0  0  0  0
    4.8540    0.5480   14.7300 N   0  0  0  0  0  0  0  0  0  0  0  0
    5.9820    0.3920   15.4360 C   0  0  0  0  0  0  0  0  0  0  0  0
    2.9380    2.2050   11.9950 C   0  0  0  0  0  0  0  0  0  0  0  0
    3.9160    2.5540   11.0290 C   0  0  0  0  0  0  0  0  0  0  0  0
    3.5960    3.3820    9.9380 C   0  0  0  0  0  0  0  0  0  0  0  0
    2.2850    3.8400    9.8480 C   0  0  0  0  0  0  0  0  0  0  0  0
    1.7560    4.6310    8.9050 N   0  0  0  0  0  0  0  0  0  0  0  0
    0.4620    4.7590    9.3020 C   0  0  0  0  0  0  0  0  0  0  0  0
    0.1700    4.0820   10.4450 N   0  0  0  0  0  0  0  0  0  0  0  0
    1.3400    3.5130   10.7660 C   0  0  0  0  0  0  0  0  0  0  0  0
    1.6190    2.6970   11.8580 C   0  0  0  0  0  0  0  0  0  0  0  0
    0.3450   -1.4490   14.8010 C   0  0  0  0  0  0  0  0  0  0  0  0
   -0.3820   -2.6100   15.0890 C   0  0  0  0  0  0  0  0  0  0  0  0
   -1.6970   -2.7490   14.6410 C   0  0  0  0  0  0  0  0  0  0  0  0
   -2.3070   -1.7260   13.8970 C   0  0  0  0  0  0  0  0  0  0  0  0
   -1.5840   -0.5590   13.6050 C   0  0  0  0  0  0  0  0  0  0  0  0
   -0.2610   -0.4310   14.0590 C   0  0  0  0  0  0  0  0  0  0  0  0
   -3.6230   -1.8470   13.4410 O   0  0  0  0  0  0  0  0  0  0  0  0
   -4.1320   -3.0430   12.8650 C   0  0  0  0  0  0  0  0  0  0  0  0
   -2.1970    0.4560   12.8630 O   0  0  0  0  0  0  0  0  0  0  0  0
   -1.5920    1.0440   11.7180 C   0  0  0  0  0  0  0  0  0  0  0  0
    6.4340   -0.9542   17.1351 H   0  0  0  0  0  0  0  0  0  0  0  0
    2.0067   -1.8532   16.0308 H   0  0  0  0  0  0  0  0  0  0  0  0
    5.3643    2.0599   13.3034 H   0  0  0  0  0  0  0  0  0  0  0  0
    6.9305    0.9300   15.2915 H   0  0  0  0  0  0  0  0  0  0  0  0
    4.9417    2.1708   11.1348 H   0  0  0  0  0  0  0  0  0  0  0  0
    4.3511    3.6563    9.1866 H   0  0  0  0  0  0  0  0  0  0  0  0
   -0.2799    5.3548    8.7501 H   0  0  0  0  0  0  0  0  0  0  0  0
   -0.7301    4.0215   10.9421 H   0  0  0  0  0  0  0  0  0  0  0  0
    0.8391    2.4428   12.5909 H   0  0  0  0  0  0  0  0  0  0  0  0
    0.0854   -3.4175   15.6716 H   0  0  0  0  0  0  0  0  0  0  0  0
   -2.2590   -3.6659   14.8723 H   0  0  0  0  0  0  0  0  0  0  0  0
    0.3060    0.4828   13.8275 H   0  0  0  0  0  0  0  0  0  0  0  0
   -4.4278   -3.7381   13.6646 H   0  0  0  0  0  0  0  0  0  0  0  0
   -5.0074   -2.8064   12.2424 H   0  0  0  0  0  0  0  0  0  0  0  0
   -3.3546   -3.5099   12.2424 H   0  0  0  0  0  0  0  0  0  0  0  0
   -0.8373    1.7775   12.0380 H   0  0  0  0  0  0  0  0  0  0  0  0
   -1.1094    0.2606   11.1152 H   0  0  0  0  0  0  0  0  0  0  0  0
   -2.3614    1.5487   11.1152 H   0  0  0  0  0  0  0  0  0  0  0  0
  1  2  1  0
  1 10  2  0
  2  3  2  0
  3  4  1  0
  3  9  1  0
  4  5  1  0
  4  6  2  0
  5 20  1  0
  6  7  1  0
  7  8  2  0
  7 11  1  0
  8  9  1  0
  9 10  1  0
 11 12  2  0
 11 19  1  0
 12 13  1  0
 13 14  2  0
 14 18  1  0
 14 15  1  0
 15 16  2  0
 16 17  1  0
 17 18  1  0
 18 19  2  0
 20 21  2  0
 20 25  1  0
 21 22  1  0
 22 23  2  0
 23 24  1  0
 23 26  1  0
 24 25  2  0
 24 28  1  0
 26 27  1  0
 28 29  1  0
  1 30  1  0
  5 31  1  0
  8 32  1  0
 10 33  1  0
 12 34  1  0
 13 35  1  0
 16 36  1  0
 17 37  1  0
 19 38  1  0
 21 39  1  0
 22 40  1  0
 25 41  1  0
 27 42  1  0
 27 43  1  0
 27 44  1  0
 29 45  1  0
 29 46  1  0
 29 47  1  0
M  END
>  <s_m_entry_id>  (1) 
19

>  <MODEL>  (1) 
1

>  <REMARK>  (1) 
 VINA RESULT:    -9.417      0.000      0.000
 INTER + INTRA:         -11.964
 INTER:                 -11.619
 INTRA:                  -0.346
 UNBOUND:                -0.346
  Name = /scratch/kmzp800/tmpfka_p5_u/tmp8rypoij9.pdb
  6 active torsions:
  status: ('A' for Active; 'I' for Inactive)
    1  A    between atoms: N2_5  and  C4_6
    2  A    between atoms: C7_9  and  O1_10
    3  A    between atoms: O1_10  and  C8_11
    4  A    between atoms: C9_12  and  O2_13
    5  A    between atoms: O2_13  and  C10_14
    6  A    between atoms: C12_17  and  C13_18
                            x       y       z     vdW  Elec       q    Type
                         _______ _______ _______ _____ _____    ______ ____

>  <TORSDO>  (1) 
F 4

>  <grid_id>  (1) 
syk-prepared

>  <grid_path>  (1) 
syk_vina.pdbqt

>  <grid_filename>  (1) 
syk_vina.pdbqt

>  <docking_score>  (1) 
-9.417

>  <compound_name>  (1) 
CHEMBL3265018

>  <index_string>  (1) 
18:0:0

>  <s_m_Source_Path>  (1) 
/projects/mai/users/kmzp800_harry/pmx_colab/docking_jobs/syk/vina_prep/output

>  <s_m_Source_File>  (1) 
ptp1b_docked_conformers.sdf

>  <i_m_Source_File_Index>  (1) 
19

$$$$
