14:0:0
     RDKit          3D

 37 39  0  0  1  0  0  0  0  0999 V2000
  -14.3390  -15.2130  -27.6600 C   0  0  0  0  0  0  0  0  0  0  0  0
  -14.8030  -15.9900  -26.6030 C   0  0  0  0  0  0  0  0  0  0  0  0
  -14.6140  -13.8530  -27.6590 C   0  0  0  0  0  0  0  0  0  0  0  0
  -15.5610  -15.4350  -25.5630 C   0  0  0  0  0  0  0  0  0  0  0  0
  -14.4790  -17.3350  -26.6060 N   0  0  0  0  0  0  0  0  0  0  0  0
  -15.3370  -13.3070  -26.6020 C   0  0  0  0  0  0  0  0  0  0  0  0
  -15.8320  -14.0760  -25.5550 C   0  0  0  0  0  0  0  0  0  0  0  0
  -16.0750  -16.3480  -24.4720 C   0  0  0  0  0  0  0  0  0  0  0  0
  -15.6910  -17.6350  -24.6830 N   0  0  0  0  0  0  0  0  0  0  0  0
  -16.7800  -16.0180  -23.5170 O   0  0  0  0  0  0  0  0  0  0  0  0
  -14.9210  -18.1460  -25.7110 C   0  0  0  0  0  0  0  0  0  0  0  0
  -15.6060  -11.6470  -26.5810 Cl  0  0  0  0  0  0  0  0  0  0  0  0
  -14.6580  -19.5790  -25.8070 C   0  0  0  0  0  0  0  0  0  0  0  0
  -14.0980  -20.2970  -24.7460 C   0  0  0  0  0  0  0  0  0  0  0  0
  -13.8310  -21.6470  -24.9070 C   0  0  0  0  0  0  0  0  0  0  0  0
  -14.1410  -22.2910  -26.1100 C   0  0  0  0  0  0  0  0  0  0  0  0
  -14.7080  -21.5750  -27.1550 C   0  0  0  0  0  0  0  0  0  0  0  0
  -14.9760  -20.2330  -27.0040 C   0  0  0  0  0  0  0  0  0  0  0  0
  -13.7240  -23.7300  -26.3480 C   0  0  0  0  0  0  0  0  0  0  0  0
  -12.7360  -23.8800  -27.4790 C   0  0  0  0  0  0  0  0  0  0  0  0
  -15.0060  -24.5330  -26.5060 C   0  0  0  0  0  0  0  0  0  0  0  0
  -12.9650  -24.3110  -25.3190 O   0  0  0  0  0  0  0  0  0  0  0  0
  -13.7652  -15.6682  -28.4807 H   0  0  0  0  0  0  0  0  0  0  0  0
  -14.2649  -13.2139  -28.4835 H   0  0  0  0  0  0  0  0  0  0  0  0
  -16.4205  -13.6199  -24.7453 H   0  0  0  0  0  0  0  0  0  0  0  0
  -16.0166  -18.3191  -23.9852 H   0  0  0  0  0  0  0  0  0  0  0  0
  -13.8718  -19.7954  -23.7935 H   0  0  0  0  0  0  0  0  0  0  0  0
  -13.3727  -22.2157  -24.0845 H   0  0  0  0  0  0  0  0  0  0  0  0
  -14.9432  -22.0796  -28.1037 H   0  0  0  0  0  0  0  0  0  0  0  0
  -15.4421  -19.6718  -27.8273 H   0  0  0  0  0  0  0  0  0  0  0  0
  -11.7276  -24.0331  -27.0671 H   0  0  0  0  0  0  0  0  0  0  0  0
  -13.0150  -24.7461  -28.0971 H   0  0  0  0  0  0  0  0  0  0  0  0
  -12.7453  -22.9701  -28.0971 H   0  0  0  0  0  0  0  0  0  0  0  0
  -15.4064  -24.7838  -25.5126 H   0  0  0  0  0  0  0  0  0  0  0  0
  -15.7462  -23.9368  -27.0598 H   0  0  0  0  0  0  0  0  0  0  0  0
  -14.7926  -25.4591  -27.0598 H   0  0  0  0  0  0  0  0  0  0  0  0
  -13.3297  -24.0318  -24.4420 H   0  0  0  0  0  0  0  0  0  0  0  0
  1  3  2  0
  1  2  1  0
  2  4  2  0
  2  5  1  0
  3  6  1  0
  4  7  1  0
  4  8  1  0
  5 11  2  0
  6 12  1  0
  6  7  2  0
  8 10  2  0
  8  9  1  0
  9 11  1  0
 11 13  1  0
 13 14  2  0
 13 18  1  0
 14 15  1  0
 15 16  2  0
 16 17  1  0
 16 19  1  0
 17 18  2  0
 19 22  1  0
 19 20  1  0
 19 21  1  0
  1 23  1  0
  3 24  1  0
  7 25  1  0
  9 26  1  0
 14 27  1  0
 15 28  1  0
 17 29  1  0
 18 30  1  0
 20 31  1  0
 20 32  1  0
 20 33  1  0
 21 34  1  0
 21 35  1  0
 21 36  1  0
 22 37  1  0
M  END
>  <s_m_entry_id>  (1) 
2342

>  <MODEL>  (1) 
1

>  <REMARK>  (1) 
 VINA RESULT:   -10.414      0.000      0.000
 INTER + INTRA:         -12.392
 INTER:                 -11.935
 INTRA:                  -0.456
 UNBOUND:                -0.456
  Name = 5e
  5 active torsions:
  status: ('A' for Active; 'I' for Inactive)
    1  A    between atoms: C_11  and  C_12
    2  A    between atoms: C_15  and  C_18
    3  A    between atoms: C_18  and  O_19
    4  A    between atoms: C_18  and  C_21
    5  A    between atoms: C_18  and  C_22
                            x       y       z     vdW  Elec       q    Type
                         _______ _______ _______ _____ _____    ______ ____

>  <TORSDO>  (1) 
F 3

>  <s_m_Source_Path>  (1) 
/projects/mai/users/kmzp800_harry/pmx_colab/docking_jobs/tnks2/vina_prep/output

>  <s_m_Source_File>  (1) 
tnks_naive_vina.sdf

>  <i_m_Source_File_Index>  (1) 
15

>  <index_string>  (1) 
14:0:0

$$$$
