18:0:0
     RDKit          3D

 40 42  0  0  1  0  0  0  0  0999 V2000
  -15.1469  -19.1844  -25.7865 C   0  0  0  0  0  0  0  0  0  0  0  0
  -15.2483  -19.9517  -24.6049 C   0  0  0  0  0  0  0  0  0  0  0  0
  -14.8482  -19.8307  -27.0011 C   0  0  0  0  0  0  0  0  0  0  0  0
  -15.0034  -21.3378  -24.6373 C   0  0  0  0  0  0  0  0  0  0  0  0
  -14.6229  -21.2111  -27.0297 C   0  0  0  0  0  0  0  0  0  0  0  0
  -14.8482  -16.9813  -26.7387 N   0  0  0  0  0  0  0  0  0  0  0  0
  -14.6573  -21.9751  -25.8495 C   0  0  0  0  0  0  0  0  0  0  0  0
  -14.3068  -23.4590  -25.8892 C   0  0  0  0  0  0  0  0  0  0  0  0
  -14.9803  -15.5816  -26.7369 C   0  0  0  0  0  0  0  0  0  0  0  0
  -15.6482  -14.9316  -25.6710 C   0  0  0  0  0  0  0  0  0  0  0  0
  -15.1502  -12.7714  -26.6818 C   0  0  0  0  0  0  0  0  0  0  0  0
  -14.4483  -13.4015  -27.7079 C   0  0  0  0  0  0  0  0  0  0  0  0
  -15.7511  -13.5223  -25.6501 C   0  0  0  0  0  0  0  0  0  0  0  0
  -14.3887  -14.7969  -27.7584 C   0  0  0  0  0  0  0  0  0  0  0  0
  -16.2078  -15.7893  -24.5732 C   0  0  0  0  0  0  0  0  0  0  0  0
  -16.0221  -17.1081  -24.7142 N   0  0  0  0  0  0  0  0  0  0  0  0
  -15.3236  -17.7060  -25.7657 C   0  0  0  0  0  0  0  0  0  0  0  0
  -16.7851  -15.3282  -23.5986 O   0  0  0  0  0  0  0  0  0  0  0  0
  -15.5941  -24.2899  -25.7632 C   0  0  0  0  0  0  0  0  0  0  0  0
  -13.7073  -23.8479  -27.1123 O   0  0  0  0  0  0  0  0  0  0  0  0
  -13.2513  -23.7763  -24.8143 C   0  0  0  0  0  0  0  0  0  0  0  0
  -13.6483  -15.3948  -28.9222 C   0  0  0  0  0  0  0  0  0  0  0  0
  -15.2472  -11.4328  -26.7386 F   0  0  0  0  0  0  0  0  0  0  0  0
  -15.4967  -19.4910  -23.6604 H   0  0  0  0  0  0  0  0  0  0  0  0
  -14.7695  -19.2757  -27.9251 H   0  0  0  0  0  0  0  0  0  0  0  0
  -15.0643  -21.9026  -23.7194 H   0  0  0  0  0  0  0  0  0  0  0  0
  -14.3702  -21.6663  -27.9662 H   0  0  0  0  0  0  0  0  0  0  0  0
  -13.9902  -12.7991  -28.4797 H   0  0  0  0  0  0  0  0  0  0  0  0
  -16.2779  -13.0185  -24.8515 H   0  0  0  0  0  0  0  0  0  0  0  0
  -16.4248  -17.7062  -24.0058 H   0  0  0  0  0  0  0  0  0  0  0  0
  -16.0414  -24.1810  -24.7750 H   0  0  0  0  0  0  0  0  0  0  0  0
  -15.4218  -25.3492  -25.9386 H   0  0  0  0  0  0  0  0  0  0  0  0
  -16.3358  -23.9710  -26.4967 H   0  0  0  0  0  0  0  0  0  0  0  0
  -13.4757  -24.7622  -27.0554 H   0  0  0  0  0  0  0  0  0  0  0  0
  -13.6540  -23.6958  -23.8061 H   0  0  0  0  0  0  0  0  0  0  0  0
  -12.8313  -24.7727  -24.9248 H   0  0  0  0  0  0  0  0  0  0  0  0
  -12.4178  -23.0787  -24.8832 H   0  0  0  0  0  0  0  0  0  0  0  0
  -13.7668  -14.7728  -29.8105 H   0  0  0  0  0  0  0  0  0  0  0  0
  -12.5834  -15.5023  -28.7386 H   0  0  0  0  0  0  0  0  0  0  0  0
  -14.0562  -16.3727  -29.1385 H   0  0  0  0  0  0  0  0  0  0  0  0
  1  2  2  0
  1  3  1  0
  1 17  1  0
  2  4  1  0
  2 24  1  0
  3  5  2  0
  3 25  1  0
  4  7  2  0
  4 26  1  0
  5  7  1  0
  5 27  1  0
  6  9  1  0
  6 17  2  0
  7  8  1  0
  8 19  1  0
  8 20  1  0
  8 21  1  0
  9 10  2  0
  9 14  1  0
 10 13  1  0
 10 15  1  0
 11 12  1  0
 11 13  2  0
 11 23  1  0
 12 14  2  0
 12 28  1  0
 13 29  1  0
 14 22  1  0
 15 16  1  0
 15 18  2  0
 16 17  1  0
 16 30  1  0
 19 31  1  0
 19 32  1  0
 19 33  1  0
 20 34  1  0
 21 35  1  0
 21 36  1  0
 21 37  1  0
 22 38  1  0
 22 39  1  0
 22 40  1  0
M  END
>  <s_m_entry_id>  (1) 
433

>  <Name>  (1) 
5m

>  <IC50[nM]>  (1) 
0.5

>  <s_m_Source_Path>  (1) 
/projects/mai/users/kmzp800_harry/pmx_colab/docking_jobs/tnks2

>  <s_m_Source_File>  (1) 
tnks2_lig.sdf

>  <i_m_Source_File_Index>  (1) 
19

>  <s_m_job_name>  (1) 
glide-dock_SP_tnks2_no_cons

>  <r_i_docking_score>  (1) 
-10.0369096006826

>  <r_i_glide_gscore>  (1) 
-10.0369096006826

>  <r_i_glide_emodel>  (1) 
-56.3969826292057

>  <index_string>  (1) 
18:0:0

$$$$
