7:0:0
     RDKit          3D

 47 49  0  0  1  0  0  0  0  0999 V2000
   31.7146   39.5456   30.2584 O   0  0  0  0  0  0  0  0  0  0  0  0
   32.1903   38.6236   29.2175 S   0  0  0  0  0  0  0  0  0  0  0  0
   33.0552   37.4940   29.5871 O   0  0  0  0  0  0  0  0  0  0  0  0
   30.7201   37.9422   28.3462 C   0  0  0  0  0  0  0  0  0  0  0  0
   33.0044   39.6306   27.8936 C   0  0  0  0  0  0  0  0  0  0  0  0
   33.7330   38.7847   26.8270 C   0  0  0  0  0  0  0  0  0  0  0  0
   35.1279   38.3131   27.2866 C   0  0  0  0  0  0  0  0  0  0  0  0
   33.8541   39.5493   25.5916 N   0  0  0  0  0  0  0  0  0  0  0  0
   33.9992   39.0167   24.3283 C   0  0  0  0  0  0  0  0  0  0  0  0
   34.1518   39.8971   23.3387 N   0  0  0  0  0  0  0  0  0  0  0  0
   34.2506   39.3885   22.0928 C   0  0  0  0  0  0  0  0  0  0  0  0
   33.9573   37.6921   24.2081 N   0  0  0  0  0  0  0  0  0  0  0  0
   34.0582   37.1527   22.9747 C   0  0  0  0  0  0  0  0  0  0  0  0
   34.2013   38.0011   21.8568 C   0  0  0  0  0  0  0  0  0  0  0  0
   34.0280   35.7347   22.7669 N   0  0  0  0  0  0  0  0  0  0  0  0
   33.9052   34.8860   23.9635 C   0  0  0  0  0  0  0  0  0  0  0  0
   34.1367   35.1562   21.5354 C   0  0  0  0  0  0  0  0  0  0  0  0
   34.1612   33.9362   21.3813 O   0  0  0  0  0  0  0  0  0  0  0  0
   34.2595   36.0588   20.3891 C   0  0  0  0  0  0  0  0  0  0  0  0
   34.2898   37.3981   20.5356 C   0  0  0  0  0  0  0  0  0  0  0  0
   34.3304   35.4845   19.1487 O   0  0  0  0  0  0  0  0  0  0  0  0
   35.4643   35.6483   18.3891 C   0  0  0  0  0  0  0  0  0  0  0  0
   36.7326   35.9495   18.9463 C   0  0  0  0  0  0  0  0  0  0  0  0
   37.8545   36.0989   18.1080 C   0  0  0  0  0  0  0  0  0  0  0  0
   35.3524   35.4554   16.9964 C   0  0  0  0  0  0  0  0  0  0  0  0
   34.1619   35.1098   16.4534 F   0  0  0  0  0  0  0  0  0  0  0  0
   36.4718   35.6045   16.1608 C   0  0  0  0  0  0  0  0  0  0  0  0
   37.7156   35.9492   16.7149 C   0  0  0  0  0  0  0  0  0  0  0  0
   38.7681   36.1741   15.9039 F   0  0  0  0  0  0  0  0  0  0  0  0
   33.1178   37.9089   26.6166 H   0  0  0  0  0  0  0  0  0  0  0  0
   30.0809   37.4307   29.0682 H   0  0  0  0  0  0  0  0  0  0  0  0
   31.0357   37.2327   27.5828 H   0  0  0  0  0  0  0  0  0  0  0  0
   30.1521   38.7484   27.8859 H   0  0  0  0  0  0  0  0  0  0  0  0
   32.2187   40.2407   27.4459 H   0  0  0  0  0  0  0  0  0  0  0  0
   33.6940   40.3240   28.3765 H   0  0  0  0  0  0  0  0  0  0  0  0
   35.0850   37.6947   28.1809 H   0  0  0  0  0  0  0  0  0  0  0  0
   35.6167   37.7132   26.5185 H   0  0  0  0  0  0  0  0  0  0  0  0
   35.7796   39.1591   27.5060 H   0  0  0  0  0  0  0  0  0  0  0  0
   33.8762   40.5635   25.6576 H   0  0  0  0  0  0  0  0  0  0  0  0
   34.3662   40.0940   21.2834 H   0  0  0  0  0  0  0  0  0  0  0  0
   33.8195   33.8165   23.7639 H   0  0  0  0  0  0  0  0  0  0  0  0
   34.7748   35.0228   24.6082 H   0  0  0  0  0  0  0  0  0  0  0  0
   33.0197   35.1681   24.5343 H   0  0  0  0  0  0  0  0  0  0  0  0
   34.3750   38.0505   19.6788 H   0  0  0  0  0  0  0  0  0  0  0  0
   36.8595   36.0761   20.0116 H   0  0  0  0  0  0  0  0  0  0  0  0
   38.8186   36.3496   18.5283 H   0  0  0  0  0  0  0  0  0  0  0  0
   36.3688   35.4788   15.0932 H   0  0  0  0  0  0  0  0  0  0  0  0
  1  2  2  0
  2  3  2  0
  2  4  1  0
  2  5  1  0
  4 31  1  0
  4 32  1  0
  4 33  1  0
  5  6  1  0
  5 34  1  0
  5 35  1  0
  6 30  1  0
  6  7  1  0
  6  8  1  0
  7 36  1  0
  7 37  1  0
  7 38  1  0
  8  9  1  0
  8 39  1  0
  9 10  2  0
  9 12  1  0
 10 11  1  0
 11 14  2  0
 11 40  1  0
 12 13  2  0
 13 14  1  0
 13 15  1  0
 14 20  1  0
 15 16  1  0
 15 17  1  0
 16 41  1  0
 16 42  1  0
 16 43  1  0
 17 18  2  0
 17 19  1  0
 19 20  2  0
 19 21  1  0
 20 44  1  0
 21 22  1  0
 22 23  2  0
 22 25  1  0
 23 24  1  0
 23 45  1  0
 24 28  2  0
 24 46  1  0
 25 26  1  0
 25 27  2  0
 27 28  1  0
 27 47  1  0
 28 29  1  0
M  END
>  <s_m_entry_id>  (1) 
724

>  <i_f3d_flags>  (1) 
0

>  <r_lp_tautomer_probability>  (1) 
1

>  <r_epik_Ionization_Penalty>  (1) 
  0.0000

>  <r_epik_State_Penalty>  (1) 
  0.0000

>  <i_epik_Tot_Q>  (1) 
0

>  <s_m_job_name>  (1) 
glide-dock_SP_p38_all_ligs_no_cons_10_poses

>  <r_i_docking_score>  (1) 
-7.09784010841815

>  <r_i_glide_gscore>  (1) 
-7.09784010841815

>  <r_i_glide_emodel>  (1) 
-57.8983677890766

>  <index_string>  (1) 
7:0:0

$$$$
