1:0:0
     RDKit          3D

 46 49  0  0  1  0  0  0  0  0999 V2000
   32.7433   34.6893   14.3820 F   0  0  0  0  0  0  0  0  0  0  0  0
   33.4615   34.9127   15.5077 C   0  0  0  0  0  0  0  0  0  0  0  0
   34.8605   34.9131   15.4891 C   0  0  0  0  0  0  0  0  0  0  0  0
   35.6080   35.1493   16.6483 C   0  0  0  0  0  0  0  0  0  0  0  0
   36.9593   35.1713   16.5710 F   0  0  0  0  0  0  0  0  0  0  0  0
   34.9497   35.2367   17.8895 C   0  0  0  0  0  0  0  0  0  0  0  0
   33.5375   35.2414   17.9165 C   0  0  0  0  0  0  0  0  0  0  0  0
   32.8144   35.1493   16.7183 C   0  0  0  0  0  0  0  0  0  0  0  0
   35.7037   35.2326   19.0324 O   0  0  0  0  0  0  0  0  0  0  0  0
   35.1812   35.8274   20.1391 C   0  0  0  0  0  0  0  0  0  0  0  0
   34.5521   34.9991   21.1717 C   0  0  0  0  0  0  0  0  0  0  0  0
   34.3017   33.8125   20.9663 O   0  0  0  0  0  0  0  0  0  0  0  0
   34.2461   35.6207   22.3471 N   0  0  0  0  0  0  0  0  0  0  0  0
   33.7149   34.8186   23.4607 C   0  0  0  0  0  0  0  0  0  0  0  0
   35.2753   37.1606   20.2604 C   0  0  0  0  0  0  0  0  0  0  0  0
   34.8311   37.8288   21.4697 C   0  0  0  0  0  0  0  0  0  0  0  0
   34.3431   37.0411   22.5316 C   0  0  0  0  0  0  0  0  0  0  0  0
   34.8825   39.2232   21.6556 C   0  0  0  0  0  0  0  0  0  0  0  0
   34.5114   39.7972   22.8179 N   0  0  0  0  0  0  0  0  0  0  0  0
   34.0687   38.9679   23.7637 C   0  0  0  0  0  0  0  0  0  0  0  0
   33.9733   37.6432   23.6800 N   0  0  0  0  0  0  0  0  0  0  0  0
   33.6529   39.5547   24.9375 N   0  0  0  0  0  0  0  0  0  0  0  0
   32.6349   38.9952   25.8191 C   0  0  0  0  0  0  0  0  0  0  0  0
   31.2485   39.0906   25.1456 C   0  0  0  0  0  0  0  0  0  0  0  0
   32.6861   39.7146   27.1865 C   0  0  0  0  0  0  0  0  0  0  0  0
   32.1521   38.9280   28.2882 N   0  0  0  0  0  0  0  0  0  0  0  0
   30.9372   38.3493   28.2722 N   0  0  0  0  0  0  0  0  0  0  0  0
   30.9144   37.8281   29.4865 C   0  0  0  0  0  0  0  0  0  0  0  0
   32.0396   38.0755   30.2159 N   0  0  0  0  0  0  0  0  0  0  0  0
   32.8135   38.7801   29.4548 N   0  0  0  0  0  0  0  0  0  0  0  0
   32.8786   37.9443   25.9831 H   0  0  0  0  0  0  0  0  0  0  0  0
   35.3521   34.7306   14.5593 H   0  0  0  0  0  0  0  0  0  0  0  0
   32.9814   35.3075   18.8396 H   0  0  0  0  0  0  0  0  0  0  0  0
   31.7380   35.1493   16.7541 H   0  0  0  0  0  0  0  0  0  0  0  0
   33.9801   33.7611   23.4045 H   0  0  0  0  0  0  0  0  0  0  0  0
   34.0972   35.1697   24.4198 H   0  0  0  0  0  0  0  0  0  0  0  0
   32.6274   34.8914   23.4854 H   0  0  0  0  0  0  0  0  0  0  0  0
   35.7441   37.7557   19.4891 H   0  0  0  0  0  0  0  0  0  0  0  0
   35.2490   39.8794   20.8813 H   0  0  0  0  0  0  0  0  0  0  0  0
   33.7727   40.5588   24.9984 H   0  0  0  0  0  0  0  0  0  0  0  0
   30.4644   38.6305   25.7445 H   0  0  0  0  0  0  0  0  0  0  0  0
   30.9607   40.1282   24.9732 H   0  0  0  0  0  0  0  0  0  0  0  0
   31.2400   38.5818   24.1810 H   0  0  0  0  0  0  0  0  0  0  0  0
   32.1561   40.6669   27.1462 H   0  0  0  0  0  0  0  0  0  0  0  0
   33.7216   39.9565   27.4344 H   0  0  0  0  0  0  0  0  0  0  0  0
   30.0696   37.2662   29.8578 H   0  0  0  0  0  0  0  0  0  0  0  0
  1  2  1  0
  2  8  2  0
  2  3  1  0
  3  4  2  0
  3 32  1  0
  4  5  1  0
  4  6  1  0
  6  7  2  0
  6  9  1  0
  7  8  1  0
  7 33  1  0
  8 34  1  0
  9 10  1  0
 10 11  1  0
 10 15  2  0
 11 12  2  0
 11 13  1  0
 13 17  1  0
 13 14  1  0
 14 35  1  0
 14 36  1  0
 14 37  1  0
 15 16  1  0
 15 38  1  0
 16 17  2  0
 16 18  1  0
 17 21  1  0
 18 19  2  0
 18 39  1  0
 19 20  1  0
 20 21  2  0
 20 22  1  0
 22 23  1  0
 22 40  1  0
 23 31  1  0
 23 24  1  0
 23 25  1  0
 24 41  1  0
 24 42  1  0
 24 43  1  0
 25 26  1  0
 25 44  1  0
 25 45  1  0
 26 30  1  0
 26 27  1  0
 27 28  2  0
 28 29  1  0
 28 46  1  0
 29 30  2  0
M  END
>  <s_m_entry_id>  (1) 
263

>  <i_f3d_flags>  (1) 
0

>  <r_lp_tautomer_probability>  (1) 
1

>  <r_epik_Ionization_Penalty>  (1) 
  0.0000

>  <r_epik_State_Penalty>  (1) 
  0.0000

>  <i_epik_Tot_Q>  (1) 
0

>  <s_m_job_name>  (1) 
glide-dock_SP_p38_core_cons_top_1

>  <r_i_docking_score>  (1) 
-6.73541100248141

>  <r_i_glide_gscore>  (1) 
-6.73541100248141

>  <r_i_glide_emodel>  (1) 
-52.0847048077371

>  <index_string>  (1) 
1:0:0

$$$$
