25:0:0
     RDKit          3D

 39 41  0  0  1  0  0  0  0  0999 V2000
  -14.7370  -17.0300  -26.6270 N   0  0  0  0  0  0  0  0  0  0  0  0
  -15.1130  -17.8850  -25.7320 C   0  0  0  0  0  0  0  0  0  0  0  0
  -15.7910  -17.4100  -24.6290 N   0  0  0  0  0  0  0  0  0  0  0  0
  -16.1550  -16.1420  -24.3310 C   0  0  0  0  0  0  0  0  0  0  0  0
  -16.8660  -15.8960  -23.3600 O   0  0  0  0  0  0  0  0  0  0  0  0
  -14.9760  -15.6530  -26.4770 C   0  0  0  0  0  0  0  0  0  0  0  0
  -15.6300  -15.1540  -25.3440 C   0  0  0  0  0  0  0  0  0  0  0  0
  -15.7870  -13.7820  -25.1620 C   0  0  0  0  0  0  0  0  0  0  0  0
  -15.2900  -12.9060  -26.1290 C   0  0  0  0  0  0  0  0  0  0  0  0
  -14.6690  -13.3970  -27.2800 C   0  0  0  0  0  0  0  0  0  0  0  0
  -14.5240  -14.7750  -27.4630 C   0  0  0  0  0  0  0  0  0  0  0  0
  -14.8830  -19.3370  -25.8290 C   0  0  0  0  0  0  0  0  0  0  0  0
  -14.2360  -20.0250  -24.7980 C   0  0  0  0  0  0  0  0  0  0  0  0
  -13.9340  -21.3670  -24.9320 C   0  0  0  0  0  0  0  0  0  0  0  0
  -14.2330  -22.0470  -26.1110 C   0  0  0  0  0  0  0  0  0  0  0  0
  -14.9730  -21.3920  -27.1040 C   0  0  0  0  0  0  0  0  0  0  0  0
  -15.2890  -20.0460  -26.9650 C   0  0  0  0  0  0  0  0  0  0  0  0
  -13.6470  -23.4550  -26.3010 C   0  0  0  0  0  0  0  0  0  0  0  0
  -13.0230  -23.9520  -24.9760 C   0  0  0  0  0  0  0  0  0  0  0  0
  -12.6180  -23.4020  -27.4610 C   0  0  0  0  0  0  0  0  0  0  0  0
  -14.6920  -24.4740  -26.7430 C   0  0  0  0  0  0  0  0  0  0  0  0
  -16.0579  -18.1216  -23.9338 H   0  0  0  0  0  0  0  0  0  0  0  0
  -16.2962  -13.3935  -24.2677 H   0  0  0  0  0  0  0  0  0  0  0  0
  -15.3883  -11.8201  -25.9833 H   0  0  0  0  0  0  0  0  0  0  0  0
  -14.2939  -12.6987  -28.0427 H   0  0  0  0  0  0  0  0  0  0  0  0
  -14.0563  -15.1652  -28.3790 H   0  0  0  0  0  0  0  0  0  0  0  0
  -13.9653  -19.4942  -23.8733 H   0  0  0  0  0  0  0  0  0  0  0  0
  -13.4533  -21.9032  -24.1005 H   0  0  0  0  0  0  0  0  0  0  0  0
  -15.3046  -21.9444  -27.9956 H   0  0  0  0  0  0  0  0  0  0  0  0
  -15.8618  -19.5348  -27.7528 H   0  0  0  0  0  0  0  0  0  0  0  0
  -13.5701  -23.5163  -24.1269 H   0  0  0  0  0  0  0  0  0  0  0  0
  -13.0871  -25.0491  -24.9293 H   0  0  0  0  0  0  0  0  0  0  0  0
  -11.9680  -23.6441  -24.9293 H   0  0  0  0  0  0  0  0  0  0  0  0
  -11.6005  -23.3496  -27.0464 H   0  0  0  0  0  0  0  0  0  0  0  0
  -12.7158  -24.3064  -28.0795 H   0  0  0  0  0  0  0  0  0  0  0  0
  -12.8082  -22.5125  -28.0795 H   0  0  0  0  0  0  0  0  0  0  0  0
  -15.1584  -24.9288  -25.8567 H   0  0  0  0  0  0  0  0  0  0  0  0
  -15.4627  -23.9710  -27.3456 H   0  0  0  0  0  0  0  0  0  0  0  0
  -14.2086  -25.2571  -27.3456 H   0  0  0  0  0  0  0  0  0  0  0  0
  1  6  1  0
  1  2  2  0
  2  3  1  0
  2 12  1  0
  3  4  1  0
  4  5  2  0
  4  7  1  0
  6  7  2  0
  6 11  1  0
  7  8  1  0
  8  9  2  0
  9 10  1  0
 10 11  2  0
 12 13  2  0
 12 17  1  0
 13 14  1  0
 14 15  2  0
 15 16  1  0
 15 18  1  0
 16 17  2  0
 18 19  1  0
 18 20  1  0
 18 21  1  0
  3 22  1  0
  8 23  1  0
  9 24  1  0
 10 25  1  0
 11 26  1  0
 13 27  1  0
 14 28  1  0
 16 29  1  0
 17 30  1  0
 19 31  1  0
 19 32  1  0
 19 33  1  0
 20 34  1  0
 20 35  1  0
 20 36  1  0
 21 37  1  0
 21 38  1  0
 21 39  1  0
M  END
>  <s_m_entry_id>  (1) 
2495

>  <MODEL>  (1) 
1

>  <REMARK>  (1) 
 VINA RESULT:   -11.246      0.000      0.000
 INTER + INTRA:         -13.075
 INTER:                 -12.586
 INTRA:                  -0.488
 UNBOUND:                -0.513
  Name = 3a
  5 active torsions:
  status: ('A' for Active; 'I' for Inactive)
    1  A    between atoms: C_2  and  C_6
    2  A    between atoms: C_9  and  C_12
    3  A    between atoms: C_12  and  C_19
    4  A    between atoms: C_12  and  C_20
    5  A    between atoms: C_12  and  C_21
                            x       y       z     vdW  Elec       q    Type
                         _______ _______ _______ _____ _____    ______ ____

>  <TORSDO>  (1) 
F 2

>  <s_m_Source_Path>  (1) 
/projects/mai/users/kmzp800_harry/pmx_colab/docking_jobs/tnks2/vina_prep/output_mcs

>  <s_m_Source_File>  (1) 
tnks_mcs_vina__all_poses.sdf

>  <i_m_Source_File_Index>  (1) 
113

>  <index_string>  (1) 
25:0:0

$$$$
