21:0:0
     RDKit          3D

 35 36  0  0  1  0  0  0  0  0999 V2000
   39.1847   17.5049   12.6686 O   0  0  0  0  0  0  0  0  0  0  0  0
   40.3583   17.0705   12.6905 C   0  0  0  0  0  0  0  0  0  0  0  0
   41.2218   17.3119   11.8167 O   0  0  0  0  0  0  0  0  0  0  0  0
   40.7605   16.1487   13.8445 C   0  0  0  0  0  0  0  0  0  0  0  0
   42.1263   15.7557   13.7474 O   0  0  0  0  0  0  0  0  0  0  0  0
   42.5183   14.9391   14.7501 C   0  0  0  0  0  0  0  0  0  0  0  0
   42.1459   13.5766   14.8841 C   0  0  0  0  0  0  0  0  0  0  0  0
   41.1745   12.6865   13.5428 Br  0  0  0  0  0  0  0  0  0  0  0  0
   42.5945   12.9364   15.9998 C   0  0  0  0  0  0  0  0  0  0  0  0
   42.3198   11.5800   16.4510 C   0  0  0  0  0  0  0  0  0  0  0  0
   41.0000   11.0854   16.4424 C   0  0  0  0  0  0  0  0  0  0  0  0
   40.7236    9.7762   16.8829 C   0  0  0  0  0  0  0  0  0  0  0  0
   41.7626    8.9559   17.3547 C   0  0  0  0  0  0  0  0  0  0  0  0
   43.0812    9.4472   17.3877 C   0  0  0  0  0  0  0  0  0  0  0  0
   44.1408    8.6324   17.8687 N   0  0  0  0  0  0  0  0  0  0  0  0
   44.2014    8.0041   19.1053 C   0  0  0  0  0  0  0  0  0  0  0  0
   44.9788    7.0899   19.3871 O   0  0  0  0  0  0  0  0  0  0  0  0
   43.2724    8.5079   19.9289 O   0  0  0  0  0  0  0  0  0  0  0  0
   43.3593   10.7441   16.9038 C   0  0  0  0  0  0  0  0  0  0  0  0
   43.6221   14.0016   16.9078 S   0  0  0  0  0  0  0  0  0  0  0  0
   43.3527   15.3125   15.7694 C   0  0  0  0  0  0  0  0  0  0  0  0
   44.0089   16.5871   16.0432 C   0  0  0  0  0  0  0  0  0  0  0  0
   43.8372   17.5496   15.2637 O   0  0  0  0  0  0  0  0  0  0  0  0
   44.7441   16.6865   17.0469 O   0  0  0  0  0  0  0  0  0  0  0  0
   40.5853   16.6584   14.7938 H   0  0  0  0  0  0  0  0  0  0  0  0
   40.1261   15.2669   13.8168 H   0  0  0  0  0  0  0  0  0  0  0  0
   40.1866   11.7077   16.0964 H   0  0  0  0  0  0  0  0  0  0  0  0
   39.7133    9.4042   16.8644 H   0  0  0  0  0  0  0  0  0  0  0  0
   41.5403    7.9533   17.6969 H   0  0  0  0  0  0  0  0  0  0  0  0
   44.8566    8.3618   17.2130 H   0  0  0  0  0  0  0  0  0  0  0  0
   44.3699   11.1176   16.9158 H   0  0  0  0  0  0  0  0  0  0  0  0
   42.6939    7.6846   20.9439 C   0  0  0  0  0  0  0  0  0  0  0  0
   42.1830    8.3164   21.6740 H   0  0  0  0  0  0  0  0  0  0  0  0
   41.9263    7.0609   20.4715 H   0  0  0  0  0  0  0  0  0  0  0  0
   43.4261    7.0485   21.4559 H   0  0  0  0  0  0  0  0  0  0  0  0
  1  2  2  0
  2  3  1  0
  2  4  1  0
  4  5  1  0
  4 25  1  0
  4 26  1  0
  5  6  1  0
  6  7  1  0
  6 21  2  0
  7  8  1  0
  7  9  2  0
  9 10  1  0
  9 20  1  0
 10 11  2  0
 10 19  1  0
 11 12  1  0
 11 27  1  0
 12 13  2  0
 12 28  1  0
 13 14  1  0
 13 29  1  0
 14 15  1  0
 14 19  2  0
 15 16  1  0
 15 30  1  0
 16 17  2  0
 16 18  1  0
 18 32  1  0
 19 31  1  0
 20 21  1  0
 21 22  1  0
 22 23  2  0
 22 24  1  0
 32 33  1  0
 32 34  1  0
 32 35  1  0
M  CHG  2   3  -1  24  -1
M  END
>  <s_m_entry_id>  (1) 
538

>  <s_m_Source_Path>  (1) 
/projects/mai/users/kmzp800_harry/pmx_colab/docking_jobs/ptp1b/glide-dock_SP_ptp1b_mcs_2

>  <s_m_Source_File>  (1) 
glide-dock_SP_ptp1b_mcs_2_pv.maegz

>  <i_m_Source_File_Index>  (1) 
23

>  <r_i_docking_score>  (1) 
-5.40737484955346

>  <r_i_glide_gscore>  (1) 
-5.40737484955346

>  <r_i_glide_emodel>  (1) 
-66.7684792712291

>  <index_string>  (1) 
21:0:0

$$$$
