2:0:0
     RDKit          3D

 48 51  0  0  1  0  0  0  0  0999 V2000
  -14.5030  -14.5890  -27.4240 C   0  0  0  0  0  0  0  0  0  0  0  0
  -15.0240  -15.4350  -26.4260 C   0  0  0  0  0  0  0  0  0  0  0  0
  -14.6310  -13.2060  -27.2820 C   0  0  0  0  0  0  0  0  0  0  0  0
  -15.7170  -14.8840  -25.3400 C   0  0  0  0  0  0  0  0  0  0  0  0
  -14.8370  -16.8280  -26.5140 N   0  0  0  0  0  0  0  0  0  0  0  0
  -15.2950  -12.6620  -26.1860 C   0  0  0  0  0  0  0  0  0  0  0  0
  -15.8560  -13.4960  -25.2140 C   0  0  0  0  0  0  0  0  0  0  0  0
  -16.3190  -15.8290  -24.3200 C   0  0  0  0  0  0  0  0  0  0  0  0
  -15.9580  -17.1240  -24.5480 N   0  0  0  0  0  0  0  0  0  0  0  0
  -17.0740  -15.5140  -23.4000 O   0  0  0  0  0  0  0  0  0  0  0  0
  -15.2550  -17.6570  -25.6140 C   0  0  0  0  0  0  0  0  0  0  0  0
  -13.7800  -15.1180  -28.6500 C   0  0  0  0  0  0  0  0  0  0  0  0
  -15.3940  -11.3190  -26.0830 F   0  0  0  0  0  0  0  0  0  0  0  0
  -15.0450  -19.1250  -25.7220 C   0  0  0  0  0  0  0  0  0  0  0  0
  -14.9500  -19.7190  -26.9900 C   0  0  0  0  0  0  0  0  0  0  0  0
  -14.7760  -21.0920  -27.1270 C   0  0  0  0  0  0  0  0  0  0  0  0
  -14.6820  -21.9120  -26.0000 C   0  0  0  0  0  0  0  0  0  0  0  0
  -14.7590  -21.3260  -24.7330 C   0  0  0  0  0  0  0  0  0  0  0  0
  -14.9450  -19.9510  -24.5920 C   0  0  0  0  0  0  0  0  0  0  0  0
  -14.6010  -23.4430  -26.1370 C   0  0  0  0  0  0  0  0  0  0  0  0
  -15.6720  -23.9460  -27.1080 C   0  0  0  0  0  0  0  0  0  0  0  0
  -15.6390  -25.4720  -27.2420 C   0  0  0  0  0  0  0  0  0  0  0  0
  -14.3150  -25.8370  -27.9190 N   0  0  0  0  0  0  0  0  0  0  0  0
  -13.1580  -25.4890  -26.9780 C   0  0  0  0  0  0  0  0  0  0  0  0
  -13.2100  -23.9890  -26.5390 C   0  0  0  0  0  0  0  0  0  0  0  0
  -14.2880  -27.3390  -28.2940 C   0  0  0  0  0  0  0  0  0  0  0  0
  -14.2025  -12.5389  -28.0445 H   0  0  0  0  0  0  0  0  0  0  0  0
  -16.4004  -13.0668  -24.3599 H   0  0  0  0  0  0  0  0  0  0  0  0
  -16.2490  -17.7991  -23.8266 H   0  0  0  0  0  0  0  0  0  0  0  0
  -12.9296  -15.7402  -28.3342 H   0  0  0  0  0  0  0  0  0  0  0  0
  -14.4737  -15.7234  -29.2520 H   0  0  0  0  0  0  0  0  0  0  0  0
  -13.4130  -14.2737  -29.2520 H   0  0  0  0  0  0  0  0  0  0  0  0
  -15.0142  -19.0889  -27.8894 H   0  0  0  0  0  0  0  0  0  0  0  0
  -14.7119  -21.5360  -28.1314 H   0  0  0  0  0  0  0  0  0  0  0  0
  -14.6718  -21.9572  -23.8363 H   0  0  0  0  0  0  0  0  0  0  0  0
  -15.0139  -19.5103  -23.5865 H   0  0  0  0  0  0  0  0  0  0  0  0
  -14.7850  -23.8361  -25.1263 H   0  0  0  0  0  0  0  0  0  0  0  0
  -16.6617  -23.6414  -26.7370 H   0  0  0  0  0  0  0  0  0  0  0  0
  -15.4722  -23.5090  -28.0975 H   0  0  0  0  0  0  0  0  0  0  0  0
  -15.6956  -25.9392  -26.2478 H   0  0  0  0  0  0  0  0  0  0  0  0
  -16.4933  -25.8311  -27.8346 H   0  0  0  0  0  0  0  0  0  0  0  0
  -13.2205  -26.1260  -26.0834 H   0  0  0  0  0  0  0  0  0  0  0  0
  -12.2128  -25.6599  -27.5141 H   0  0  0  0  0  0  0  0  0  0  0  0
  -12.8402  -23.3808  -27.3776 H   0  0  0  0  0  0  0  0  0  0  0  0
  -12.5950  -23.9269  -25.6291 H   0  0  0  0  0  0  0  0  0  0  0  0
  -14.2771  -27.9458  -27.3766 H   0  0  0  0  0  0  0  0  0  0  0  0
  -15.1819  -27.5853  -28.8859 H   0  0  0  0  0  0  0  0  0  0  0  0
  -13.3859  -27.5530  -28.8859 H   0  0  0  0  0  0  0  0  0  0  0  0
  1  3  2  0
  1  2  1  0
  1 12  1  0
  2  4  2  0
  2  5  1  0
  3  6  1  0
  4  7  1  0
  4  8  1  0
  5 11  2  0
  6 13  1  0
  6  7  2  0
  8 10  2  0
  8  9  1  0
  9 11  1  0
 11 14  1  0
 14 19  1  0
 14 15  2  0
 15 16  1  0
 16 17  2  0
 17 18  1  0
 17 20  1  0
 18 19  2  0
 20 21  1  0
 20 25  1  0
 21 22  1  0
 22 23  1  0
 23 24  1  0
 23 26  1  0
 24 25  1  0
  3 27  1  0
  7 28  1  0
  9 29  1  0
 12 30  1  0
 12 31  1  0
 12 32  1  0
 15 33  1  0
 16 34  1  0
 18 35  1  0
 19 36  1  0
 20 37  1  0
 21 38  1  0
 21 39  1  0
 22 40  1  0
 22 41  1  0
 24 42  1  0
 24 43  1  0
 25 44  1  0
 25 45  1  0
 26 46  1  0
 26 47  1  0
 26 48  1  0
M  END
>  <s_m_entry_id>  (1) 
2389

>  <MODEL>  (1) 
1

>  <REMARK>  (1) 
 VINA RESULT:   -11.833      0.000      0.000
 INTER + INTRA:         -13.677
 INTER:                 -13.189
 INTRA:                  -0.488
 UNBOUND:                -0.460
  Name = 8f
  4 active torsions:
  status: ('A' for Active; 'I' for Inactive)
    1  A    between atoms: C_1  and  C_18
    2  A    between atoms: C_11  and  C_12
    3  A    between atoms: C_15  and  C_20
    4  A    between atoms: N_23  and  C_26
                            x       y       z     vdW  Elec       q    Type
                         _______ _______ _______ _____ _____    ______ ____

>  <TORSDO>  (1) 
F 2

>  <s_m_Source_Path>  (1) 
/projects/mai/users/kmzp800_harry/pmx_colab/docking_jobs/tnks2/vina_prep/output_mcs

>  <s_m_Source_File>  (1) 
tnks_mcs_vina__all_poses.sdf

>  <i_m_Source_File_Index>  (1) 
7

>  <index_string>  (1) 
2:0:0

$$$$
