6:0:0
     RDKit          3D

 48 50  0  0  1  0  0  0  0  0999 V2000
   39.3835   17.8863   12.4956 O   0  0  0  0  0  0  0  0  0  0  0  0
   40.5377   17.4074   12.5513 C   0  0  0  0  0  0  0  0  0  0  0  0
   41.3838   17.4863   11.6313 O   0  0  0  0  0  0  0  0  0  0  0  0
   40.9326   16.6837   13.8379 C   0  0  0  0  0  0  0  0  0  0  0  0
   42.1084   15.9165   13.6251 O   0  0  0  0  0  0  0  0  0  0  0  0
   42.3810   15.0339   14.6079 C   0  0  0  0  0  0  0  0  0  0  0  0
   41.8794   13.7097   14.6521 C   0  0  0  0  0  0  0  0  0  0  0  0
   40.7112   13.1046   13.2940 Br  0  0  0  0  0  0  0  0  0  0  0  0
   42.3116   12.9407   15.7033 C   0  0  0  0  0  0  0  0  0  0  0  0
   43.3838   13.8869   16.7067 S   0  0  0  0  0  0  0  0  0  0  0  0
   43.1669   15.3051   15.6941 C   0  0  0  0  0  0  0  0  0  0  0  0
   43.8041   16.5565   16.1192 C   0  0  0  0  0  0  0  0  0  0  0  0
   44.1936   16.6856   17.2986 O   0  0  0  0  0  0  0  0  0  0  0  0
   43.9285   17.4864   15.2940 O   0  0  0  0  0  0  0  0  0  0  0  0
   42.0105   11.5504   16.0525 C   0  0  0  0  0  0  0  0  0  0  0  0
   42.9936   10.7022   16.6078 C   0  0  0  0  0  0  0  0  0  0  0  0
   42.6967    9.3550   16.8947 C   0  0  0  0  0  0  0  0  0  0  0  0
   41.4241    8.8269   16.6028 C   0  0  0  0  0  0  0  0  0  0  0  0
   40.4299    9.6590   16.0444 C   0  0  0  0  0  0  0  0  0  0  0  0
   40.7275   11.0141   15.8103 C   0  0  0  0  0  0  0  0  0  0  0  0
   39.1519    9.2027   15.6861 N   0  0  0  0  0  0  0  0  0  0  0  0
   39.0011    7.8755   15.0927 C   0  0  0  0  0  0  0  0  0  0  0  0
   37.5008    7.5156   15.0734 C   0  0  0  0  0  0  0  0  0  0  0  0
   37.1621    6.0129   15.0701 C   0  0  0  0  0  0  0  0  0  0  0  0
   38.0293    5.0972   14.1895 C   0  0  0  0  0  0  0  0  0  0  0  0
   38.4708    5.6987   12.8482 C   0  0  0  0  0  0  0  0  0  0  0  0
   39.7596    6.5223   12.9795 C   0  0  0  0  0  0  0  0  0  0  0  0
   39.5916    7.8868   13.6628 C   0  0  0  0  0  0  0  0  0  0  0  0
   41.1039   17.4202   14.6246 H   0  0  0  0  0  0  0  0  0  0  0  0
   40.1039   16.0488   14.1561 H   0  0  0  0  0  0  0  0  0  0  0  0
   43.9872   11.0768   16.8076 H   0  0  0  0  0  0  0  0  0  0  0  0
   43.4556    8.7166   17.3215 H   0  0  0  0  0  0  0  0  0  0  0  0
   41.2288    7.7870   16.8161 H   0  0  0  0  0  0  0  0  0  0  0  0
   39.9527   11.6482   15.4127 H   0  0  0  0  0  0  0  0  0  0  0  0
   38.6046    9.9072   15.2028 H   0  0  0  0  0  0  0  0  0  0  0  0
   39.5243    7.1468   15.7106 H   0  0  0  0  0  0  0  0  0  0  0  0
   37.0120    7.9424   15.9505 H   0  0  0  0  0  0  0  0  0  0  0  0
   37.0224    7.9996   14.2208 H   0  0  0  0  0  0  0  0  0  0  0  0
   37.2099    5.6368   16.0927 H   0  0  0  0  0  0  0  0  0  0  0  0
   36.1188    5.9054   14.7710 H   0  0  0  0  0  0  0  0  0  0  0  0
   38.9092    4.7786   14.7498 H   0  0  0  0  0  0  0  0  0  0  0  0
   37.4672    4.1820   13.9998 H   0  0  0  0  0  0  0  0  0  0  0  0
   38.6725    4.8780   12.1595 H   0  0  0  0  0  0  0  0  0  0  0  0
   37.6697    6.2823   12.3931 H   0  0  0  0  0  0  0  0  0  0  0  0
   40.5199    5.9406   13.5032 H   0  0  0  0  0  0  0  0  0  0  0  0
   40.1639    6.6924   11.9810 H   0  0  0  0  0  0  0  0  0  0  0  0
   38.9879    8.5363   13.0267 H   0  0  0  0  0  0  0  0  0  0  0  0
   40.5834    8.3364   13.6934 H   0  0  0  0  0  0  0  0  0  0  0  0
  1  2  2  0
  2  3  1  0
  2  4  1  0
  4  5  1  0
  4 29  1  0
  4 30  1  0
  5  6  1  0
  6 11  2  0
  6  7  1  0
  7  8  1  0
  7  9  2  0
  9 10  1  0
  9 15  1  0
 10 11  1  0
 11 12  1  0
 12 13  2  0
 12 14  1  0
 15 20  1  0
 15 16  2  0
 16 17  1  0
 16 31  1  0
 17 18  2  0
 17 32  1  0
 18 19  1  0
 18 33  1  0
 19 20  2  0
 19 21  1  0
 20 34  1  0
 21 22  1  0
 21 35  1  0
 22 28  1  0
 22 23  1  0
 22 36  1  0
 23 24  1  0
 23 37  1  0
 23 38  1  0
 24 25  1  0
 24 39  1  0
 24 40  1  0
 25 26  1  0
 25 41  1  0
 25 42  1  0
 26 27  1  0
 26 43  1  0
 26 44  1  0
 27 28  1  0
 27 45  1  0
 27 46  1  0
 28 47  1  0
 28 48  1  0
M  CHG  2   3  -1  14  -1
M  END
>  <s_m_entry_id>  (1) 
459

>  <i_f3d_flags>  (1) 
0

>  <r_epik_Ionization_Penalty>  (1) 
  0.0036

>  <r_epik_State_Penalty>  (1) 
  0.0025

>  <i_epik_Tot_Q>  (1) 
-2

>  <s_m_job_name>  (1) 
glide-dock_SP_ptp1b_no_cons

>  <r_i_docking_score>  (1) 
-8.23167562429936

>  <r_i_glide_gscore>  (1) 
-8.23417562429936

>  <r_i_glide_emodel>  (1) 
-107.990320576782

>  <index_string>  (1) 
6:0:0

$$$$
