5:0:0
     RDKit          3D

 41 43  0  0  1  0  0  0  0  0999 V2000
   30.9521   38.9271   25.4581 C   0  0  0  0  0  0  0  0  0  0  0  0
   32.3490   38.8886   26.0988 C   0  0  0  0  0  0  0  0  0  0  0  0
   32.3494   39.5376   27.4887 C   0  0  0  0  0  0  0  0  0  0  0  0
   33.3309   39.5493   25.2515 N   0  0  0  0  0  0  0  0  0  0  0  0
   33.8126   39.0550   24.0595 C   0  0  0  0  0  0  0  0  0  0  0  0
   33.6529   37.7560   23.8015 N   0  0  0  0  0  0  0  0  0  0  0  0
   34.4134   39.9488   23.2782 N   0  0  0  0  0  0  0  0  0  0  0  0
   34.9072   39.4902   22.1141 C   0  0  0  0  0  0  0  0  0  0  0  0
   34.8014   38.1366   21.7481 C   0  0  0  0  0  0  0  0  0  0  0  0
   34.1493   37.2641   22.6427 C   0  0  0  0  0  0  0  0  0  0  0  0
   35.3521   37.5953   20.5187 C   0  0  0  0  0  0  0  0  0  0  0  0
   35.2592   36.2850   20.2387 C   0  0  0  0  0  0  0  0  0  0  0  0
   34.6034   35.3409   21.1584 C   0  0  0  0  0  0  0  0  0  0  0  0
   34.5521   34.1345   20.9047 O   0  0  0  0  0  0  0  0  0  0  0  0
   34.0557   35.8731   22.2935 N   0  0  0  0  0  0  0  0  0  0  0  0
   33.3598   34.9904   23.2434 C   0  0  0  0  0  0  0  0  0  0  0  0
   35.8504   35.8207   19.0935 O   0  0  0  0  0  0  0  0  0  0  0  0
   35.0829   35.5493   17.9811 C   0  0  0  0  0  0  0  0  0  0  0  0
   33.6705   35.4459   18.0066 C   0  0  0  0  0  0  0  0  0  0  0  0
   32.9613   35.1493   16.8289 C   0  0  0  0  0  0  0  0  0  0  0  0
   35.7521   35.3661   16.7513 C   0  0  0  0  0  0  0  0  0  0  0  0
   37.0932   35.5426   16.6793 F   0  0  0  0  0  0  0  0  0  0  0  0
   35.0415   34.9582   15.6057 C   0  0  0  0  0  0  0  0  0  0  0  0
   33.6422   34.8428   15.6425 C   0  0  0  0  0  0  0  0  0  0  0  0
   32.9521   34.4698   14.5395 F   0  0  0  0  0  0  0  0  0  0  0  0
   30.2082   38.4681   26.1101 H   0  0  0  0  0  0  0  0  0  0  0  0
   30.9327   38.3843   24.5127 H   0  0  0  0  0  0  0  0  0  0  0  0
   30.6329   39.9493   25.2563 H   0  0  0  0  0  0  0  0  0  0  0  0
   32.6435   37.8450   26.2190 H   0  0  0  0  0  0  0  0  0  0  0  0
   31.5943   39.0898   28.1354 H   0  0  0  0  0  0  0  0  0  0  0  0
   33.3159   39.4117   27.9775 H   0  0  0  0  0  0  0  0  0  0  0  0
   32.1521   40.6082   27.4294 H   0  0  0  0  0  0  0  0  0  0  0  0
   33.5092   40.5323   25.4335 H   0  0  0  0  0  0  0  0  0  0  0  0
   35.4099   40.2093   21.4891 H   0  0  0  0  0  0  0  0  0  0  0  0
   35.8533   38.2721   19.8423 H   0  0  0  0  0  0  0  0  0  0  0  0
   33.1177   34.0020   22.8509 H   0  0  0  0  0  0  0  0  0  0  0  0
   33.9719   34.8502   24.1350 H   0  0  0  0  0  0  0  0  0  0  0  0
   32.4127   35.4333   23.5544 H   0  0  0  0  0  0  0  0  0  0  0  0
   33.0985   35.6220   18.9043 H   0  0  0  0  0  0  0  0  0  0  0  0
   31.8821   35.1493   16.8541 H   0  0  0  0  0  0  0  0  0  0  0  0
   35.5640   34.7493   14.6891 H   0  0  0  0  0  0  0  0  0  0  0  0
  1  2  1  0
  1 26  1  0
  1 27  1  0
  1 28  1  0
  2  3  1  0
  2  4  1  0
  2 29  1  0
  3 30  1  0
  3 31  1  0
  3 32  1  0
  4  5  1  0
  4 33  1  0
  5  6  2  0
  5  7  1  0
  6 10  1  0
  7  8  2  0
  8  9  1  0
  8 34  1  0
  9 10  2  0
  9 11  1  0
 10 15  1  0
 11 12  2  0
 11 35  1  0
 12 13  1  0
 12 17  1  0
 13 14  2  0
 13 15  1  0
 15 16  1  0
 16 36  1  0
 16 37  1  0
 16 38  1  0
 17 18  1  0
 18 19  2  0
 18 21  1  0
 19 20  1  0
 19 39  1  0
 20 24  2  0
 20 40  1  0
 21 22  1  0
 21 23  2  0
 23 24  1  0
 23 41  1  0
 24 25  1  0
M  END
>  <s_m_entry_id>  (1) 
722

>  <i_f3d_flags>  (1) 
0

>  <r_lp_tautomer_probability>  (1) 
1

>  <r_epik_Ionization_Penalty>  (1) 
  0.0000

>  <r_epik_State_Penalty>  (1) 
  0.0000

>  <i_epik_Tot_Q>  (1) 
0

>  <s_m_job_name>  (1) 
glide-dock_SP_p38_all_ligs_no_cons_10_poses

>  <r_i_docking_score>  (1) 
-7.26920282959428

>  <r_i_glide_gscore>  (1) 
-7.26920282959428

>  <r_i_glide_emodel>  (1) 
-52.3979222679793

>  <index_string>  (1) 
5:0:0

$$$$
