22:0:0
     RDKit          3D

 51 54  0  0  1  0  0  0  0  0999 V2000
   -4.4552   -3.5142   14.7913 C   0  0  0  0  0  0  0  0  0  0  0  0
   -3.8812   -2.3056   14.3087 O   0  0  0  0  0  0  0  0  0  0  0  0
   -2.5340   -2.0960   14.5449 C   0  0  0  0  0  0  0  0  0  0  0  0
   -1.7193   -2.9897   15.2852 C   0  0  0  0  0  0  0  0  0  0  0  0
   -0.3559   -2.7093   15.4950 C   0  0  0  0  0  0  0  0  0  0  0  0
    0.2293   -1.5366   14.9790 C   0  0  0  0  0  0  0  0  0  0  0  0
    1.5890   -1.3200   15.2593 N   0  0  0  0  0  0  0  0  0  0  0  0
    2.5250   -0.4243   14.7344 C   0  0  0  0  0  0  0  0  0  0  0  0
    2.1886    0.4001   13.7718 N   0  0  0  0  0  0  0  0  0  0  0  0
    3.1215    1.2764   13.2444 C   0  0  0  0  0  0  0  0  0  0  0  0
    4.4281    1.2885   13.6867 C   0  0  0  0  0  0  0  0  0  0  0  0
    4.7593    0.4790   14.7240 N   0  0  0  0  0  0  0  0  0  0  0  0
    5.8950    0.3908   15.5140 C   0  0  0  0  0  0  0  0  0  0  0  0
    5.5903   -0.4956   16.5118 C   0  0  0  0  0  0  0  0  0  0  0  0
    4.3516   -1.0598   16.3270 N   0  0  0  0  0  0  0  0  0  0  0  0
    3.8249   -0.4165   15.2952 C   0  0  0  0  0  0  0  0  0  0  0  0
    2.6407    2.2643   12.2373 C   0  0  0  0  0  0  0  0  0  0  0  0
    3.5237    2.7997   11.2654 C   0  0  0  0  0  0  0  0  0  0  0  0
    3.0887    3.6778   10.2587 C   0  0  0  0  0  0  0  0  0  0  0  0
    1.7308    4.0680   10.1953 C   0  0  0  0  0  0  0  0  0  0  0  0
    1.2877    4.9535    9.0691 C   0  0  0  0  0  0  0  0  0  0  0  0
    0.3032    4.6768    8.3848 O   0  0  0  0  0  0  0  0  0  0  0  0
    2.0063    6.0634    8.8804 N   0  0  0  0  0  0  0  0  0  0  0  0
    0.8302    3.5732   11.1724 C   0  0  0  0  0  0  0  0  0  0  0  0
   -0.6311    3.9962   11.1727 C   0  0  0  0  0  0  0  0  0  0  0  0
    1.2946    2.6941   12.1864 C   0  0  0  0  0  0  0  0  0  0  0  0
   -0.5862   -0.6567   14.2358 C   0  0  0  0  0  0  0  0  0  0  0  0
   -1.9584   -0.9167   14.0080 C   0  0  0  0  0  0  0  0  0  0  0  0
   -2.7905   -0.0662   13.3073 O   0  0  0  0  0  0  0  0  0  0  0  0
   -2.2051    1.0562   12.6602 C   0  0  0  0  0  0  0  0  0  0  0  0
   -5.5052   -3.5441   14.5109 H   0  0  0  0  0  0  0  0  0  0  0  0
   -3.9690   -4.3888   14.3545 H   0  0  0  0  0  0  0  0  0  0  0  0
   -4.4017   -3.5749   15.8798 H   0  0  0  0  0  0  0  0  0  0  0  0
   -2.1147   -3.8937   15.7256 H   0  0  0  0  0  0  0  0  0  0  0  0
    0.2349   -3.3974   16.0744 H   0  0  0  0  0  0  0  0  0  0  0  0
    2.0083   -1.9776   15.9051 H   0  0  0  0  0  0  0  0  0  0  0  0
    5.1971    1.9831   13.3561 H   0  0  0  0  0  0  0  0  0  0  0  0
    6.7634    1.0004   15.3175 H   0  0  0  0  0  0  0  0  0  0  0  0
    6.1171   -0.7554   17.4022 H   0  0  0  0  0  0  0  0  0  0  0  0
    4.5604    2.5027   11.2724 H   0  0  0  0  0  0  0  0  0  0  0  0
    3.8036    4.0284    9.5195 H   0  0  0  0  0  0  0  0  0  0  0  0
    1.7374    6.7139    8.1584 H   0  0  0  0  0  0  0  0  0  0  0  0
    2.7571    6.2859    9.5157 H   0  0  0  0  0  0  0  0  0  0  0  0
   -1.1256    3.7535   12.1140 H   0  0  0  0  0  0  0  0  0  0  0  0
   -0.7212    5.0812   11.0399 H   0  0  0  0  0  0  0  0  0  0  0  0
   -1.1793    3.5059   10.3605 H   0  0  0  0  0  0  0  0  0  0  0  0
    0.5898    2.3089   12.9028 H   0  0  0  0  0  0  0  0  0  0  0  0
   -0.1708    0.2561   13.8559 H   0  0  0  0  0  0  0  0  0  0  0  0
   -2.9642    1.5927   12.0918 H   0  0  0  0  0  0  0  0  0  0  0  0
   -1.7893    1.7547   13.3858 H   0  0  0  0  0  0  0  0  0  0  0  0
   -1.4236    0.7593   11.9599 H   0  0  0  0  0  0  0  0  0  0  0  0
  1  2  1  0
  1 31  1  0
  1 32  1  0
  1 33  1  0
  2  3  1  0
  3  4  2  0
  3 28  1  0
  4  5  1  0
  4 34  1  0
  5  6  2  0
  5 35  1  0
  6  7  1  0
  6 27  1  0
  7  8  1  0
  7 36  1  0
  8  9  2  0
  8 16  1  0
  9 10  1  0
 10 11  2  0
 10 17  1  0
 11 12  1  0
 11 37  1  0
 12 13  1  0
 12 16  1  0
 13 14  2  0
 13 38  1  0
 14 15  1  0
 14 39  1  0
 15 16  2  0
 17 18  2  0
 17 26  1  0
 18 19  1  0
 18 40  1  0
 19 20  2  0
 19 41  1  0
 20 21  1  0
 20 24  1  0
 21 22  2  0
 21 23  1  0
 23 42  1  0
 23 43  1  0
 24 25  1  0
 24 26  2  0
 25 44  1  0
 25 45  1  0
 25 46  1  0
 26 47  1  0
 27 28  2  0
 27 48  1  0
 28 29  1  0
 29 30  1  0
 30 49  1  0
 30 50  1  0
 30 51  1  0
M  END
>  <s_m_entry_id>  (1) 
1010

>  <IC50[nM]>  (1) 
64.1

>  <s_m_Source_Path>  (1) 
/projects/mai/users/kmzp800_harry/pmx_colab/docking_jobs/syk

>  <s_m_Source_File>  (1) 
tnks2_lig.sdf

>  <i_m_Source_File_Index>  (1) 
23

>  <s_m_job_name>  (1) 
glide-dock_SP_tnks2_core_const

>  <r_i_docking_score>  (1) 
-7.35175798646463

>  <r_i_glide_gscore>  (1) 
-7.35175798646463

>  <r_i_glide_emodel>  (1) 
-50.1652528164008

>  <index_string>  (1) 
22:0:0

$$$$
