11:0:0
     RDKit          3D

 52 55  0  0  1  0  0  0  0  0999 V2000
    5.5750   -0.5780   16.2460 C   0  0  0  0  0  0  0  0  0  0  0  0
    4.3220   -1.0990   16.2070 N   0  0  0  0  0  0  0  0  0  0  0  0
    3.7100   -0.3750   15.2530 C   0  0  0  0  0  0  0  0  0  0  0  0
    2.3930   -0.5120   14.8200 C   0  0  0  0  0  0  0  0  0  0  0  0
    1.5380   -1.5050   15.4020 N   0  0  0  0  0  0  0  0  0  0  0  0
    1.9610    0.3280   13.8330 N   0  0  0  0  0  0  0  0  0  0  0  0
    2.7760    1.2790   13.2740 C   0  0  0  0  0  0  0  0  0  0  0  0
    4.1030    1.3950   13.7320 C   0  0  0  0  0  0  0  0  0  0  0  0
    4.5050    0.5500   14.7110 N   0  0  0  0  0  0  0  0  0  0  0  0
    5.6950    0.4510   15.3150 C   0  0  0  0  0  0  0  0  0  0  0  0
    0.1690   -1.7790   15.0780 C   0  0  0  0  0  0  0  0  0  0  0  0
   -0.3640   -3.0220   15.4280 C   0  0  0  0  0  0  0  0  0  0  0  0
   -1.6920   -3.3310   15.1310 C   0  0  0  0  0  0  0  0  0  0  0  0
   -2.5100   -2.3980   14.4760 C   0  0  0  0  0  0  0  0  0  0  0  0
   -1.9850   -1.1470   14.1200 C   0  0  0  0  0  0  0  0  0  0  0  0
   -0.6460   -0.8440   14.4230 C   0  0  0  0  0  0  0  0  0  0  0  0
   -3.8450   -2.6910   14.1710 O   0  0  0  0  0  0  0  0  0  0  0  0
   -4.2360   -3.3210   12.9600 C   0  0  0  0  0  0  0  0  0  0  0  0
   -2.8090   -0.2230   13.4680 O   0  0  0  0  0  0  0  0  0  0  0  0
   -2.3110    0.7450   12.5560 C   0  0  0  0  0  0  0  0  0  0  0  0
    2.2630    2.1650   12.2080 C   0  0  0  0  0  0  0  0  0  0  0  0
    3.1500    2.7830   11.3220 C   0  0  0  0  0  0  0  0  0  0  0  0
    2.6740    3.6200   10.3140 C   0  0  0  0  0  0  0  0  0  0  0  0
    1.3000    3.8630   10.1630 C   0  0  0  0  0  0  0  0  0  0  0  0
    0.3940    3.2420   11.0550 C   0  0  0  0  0  0  0  0  0  0  0  0
    0.8900    2.4010   12.0660 C   0  0  0  0  0  0  0  0  0  0  0  0
    0.8630    4.7650    9.0690 C   0  0  0  0  0  0  0  0  0  0  0  0
    1.4850    5.8390    8.8540 O   0  0  0  0  0  0  0  0  0  0  0  0
   -0.2550    4.4470    8.2440 N   0  0  0  0  0  0  0  0  0  0  0  0
   -0.9840    3.4610   10.9360 O   0  0  0  0  0  0  0  0  0  0  0  0
   -1.7000    4.3640   11.7680 C   0  0  0  0  0  0  0  0  0  0  0  0
    6.3785   -0.9189   16.9154 H   0  0  0  0  0  0  0  0  0  0  0  0
    1.9566   -2.0899   16.1392 H   0  0  0  0  0  0  0  0  0  0  0  0
    4.7881    2.1449   13.3097 H   0  0  0  0  0  0  0  0  0  0  0  0
    6.5890    1.0603   15.1161 H   0  0  0  0  0  0  0  0  0  0  0  0
    0.2675   -3.7622   15.9412 H   0  0  0  0  0  0  0  0  0  0  0  0
   -2.1004   -4.3129   15.4124 H   0  0  0  0  0  0  0  0  0  0  0  0
   -0.2332    0.1365   14.1435 H   0  0  0  0  0  0  0  0  0  0  0  0
   -4.8034   -4.2352   13.1888 H   0  0  0  0  0  0  0  0  0  0  0  0
   -4.8669   -2.6343   12.3765 H   0  0  0  0  0  0  0  0  0  0  0  0
   -3.3406   -3.5815   12.3765 H   0  0  0  0  0  0  0  0  0  0  0  0
   -1.8777    1.5872   13.1155 H   0  0  0  0  0  0  0  0  0  0  0  0
   -1.5361    0.2879   11.9230 H   0  0  0  0  0  0  0  0  0  0  0  0
   -3.1334    1.1097   11.9230 H   0  0  0  0  0  0  0  0  0  0  0  0
    4.2314    2.6076   11.4209 H   0  0  0  0  0  0  0  0  0  0  0  0
    3.3868    4.0978    9.6258 H   0  0  0  0  0  0  0  0  0  0  0  0
    0.1856    1.9185   12.7596 H   0  0  0  0  0  0  0  0  0  0  0  0
   -0.5386    5.0898    7.4908 H   0  0  0  0  0  0  0  0  0  0  0  0
   -0.7793    3.5744    8.4010 H   0  0  0  0  0  0  0  0  0  0  0  0
   -1.5075    4.1213   12.8235 H   0  0  0  0  0  0  0  0  0  0  0  0
   -1.3695    5.3928   11.5622 H   0  0  0  0  0  0  0  0  0  0  0  0
   -2.7771    4.2768   11.5622 H   0  0  0  0  0  0  0  0  0  0  0  0
  1  2  1  0
  1 10  2  0
  2  3  2  0
  3  4  1  0
  3  9  1  0
  4  5  1  0
  4  6  2  0
  5 11  1  0
  6  7  1  0
  7  8  2  0
  7 21  1  0
  8  9  1  0
  9 10  1  0
 11 12  2  0
 11 16  1  0
 12 13  1  0
 13 14  2  0
 14 15  1  0
 14 17  1  0
 15 16  2  0
 15 19  1  0
 17 18  1  0
 19 20  1  0
 21 22  2  0
 21 26  1  0
 22 23  1  0
 23 24  2  0
 24 25  1  0
 24 27  1  0
 25 26  2  0
 25 30  1  0
 27 28  2  0
 27 29  1  0
 30 31  1  0
  1 32  1  0
  5 33  1  0
  8 34  1  0
 10 35  1  0
 12 36  1  0
 13 37  1  0
 16 38  1  0
 18 39  1  0
 18 40  1  0
 18 41  1  0
 20 42  1  0
 20 43  1  0
 20 44  1  0
 22 45  1  0
 23 46  1  0
 26 47  1  0
 29 48  1  0
 29 49  1  0
 31 50  1  0
 31 51  1  0
 31 52  1  0
M  END
>  <s_m_entry_id>  (1) 
503

>  <MODEL>  (1) 
1

>  <REMARK>  (1) 
 VINA RESULT:    -9.529      0.000      0.000
 INTER + INTRA:         -12.654
 INTER:                 -11.796
 INTRA:                  -0.858
 UNBOUND:                 0.218
  Name = /scratch/kmzp800/tmpcivzm3ic/tmp8w5bqqjr.pdb
  9 active torsions:
  status: ('A' for Active; 'I' for Inactive)
    1  A    between atoms: N2_5  and  C4_6
    2  A    between atoms: C7_9  and  O1_10
    3  A    between atoms: O1_10  and  C8_11
    4  A    between atoms: C9_12  and  O2_13
    5  A    between atoms: O2_13  and  C10_14
    6  A    between atoms: C12_17  and  C13_18
    7  A    between atoms: C16_21  and  C17_22
    8  A    between atoms: C18_25  and  O4_26
    9  A    between atoms: O4_26  and  C19_27
                            x       y       z     vdW  Elec       q    Type
                         _______ _______ _______ _____ _____    ______ ____

>  <TORSDO>  (1) 
F 6

>  <grid_id>  (1) 
syk-prepared

>  <grid_path>  (1) 
syk_vina.pdbqt

>  <grid_filename>  (1) 
syk_vina.pdbqt

>  <docking_score>  (1) 
-9.529

>  <compound_name>  (1) 
CHEMBL3265014

>  <index_string>  (1) 
11:0:0

>  <s_m_Source_Path>  (1) 
/projects/mai/users/kmzp800_harry/pmx_colab/docking_jobs/syk/vina_prep/output

>  <s_m_Source_File>  (1) 
ptp1b_docked_conformers.sdf

>  <i_m_Source_File_Index>  (1) 
327

$$$$
