32:0:0
     RDKit          3D

 52 55  0  0  1  0  0  0  0  0999 V2000
   38.9521   36.0048   16.2894 F   0  0  0  0  0  0  0  0  0  0  0  0
   37.8183   35.9533   17.0109 C   0  0  0  0  0  0  0  0  0  0  0  0
   36.6136   35.5894   16.3891 C   0  0  0  0  0  0  0  0  0  0  0  0
   35.4307   35.5429   17.1458 C   0  0  0  0  0  0  0  0  0  0  0  0
   34.2823   35.1492   16.5493 F   0  0  0  0  0  0  0  0  0  0  0  0
   35.4406   35.8481   18.5221 C   0  0  0  0  0  0  0  0  0  0  0  0
   36.6643   36.2327   19.1322 C   0  0  0  0  0  0  0  0  0  0  0  0
   37.8442   36.3007   18.3745 C   0  0  0  0  0  0  0  0  0  0  0  0
   34.2573   35.7194   19.2126 O   0  0  0  0  0  0  0  0  0  0  0  0
   34.1914   36.2131   20.4842 C   0  0  0  0  0  0  0  0  0  0  0  0
   34.1666   37.5450   20.6744 C   0  0  0  0  0  0  0  0  0  0  0  0
   34.2102   35.2619   21.5996 C   0  0  0  0  0  0  0  0  0  0  0  0
   34.2223   34.0447   21.4010 O   0  0  0  0  0  0  0  0  0  0  0  0
   34.2451   35.8009   22.8559 N   0  0  0  0  0  0  0  0  0  0  0  0
   34.3237   34.9125   24.0272 C   0  0  0  0  0  0  0  0  0  0  0  0
   34.2087   37.2151   23.1096 C   0  0  0  0  0  0  0  0  0  0  0  0
   34.1784   38.0981   22.0125 C   0  0  0  0  0  0  0  0  0  0  0  0
   34.1953   37.7203   24.3614 N   0  0  0  0  0  0  0  0  0  0  0  0
   34.1420   39.0459   24.5106 C   0  0  0  0  0  0  0  0  0  0  0  0
   34.1513   39.9493   23.5347 N   0  0  0  0  0  0  0  0  0  0  0  0
   34.1652   39.4773   22.2746 C   0  0  0  0  0  0  0  0  0  0  0  0
   34.0190   39.5490   25.7886 N   0  0  0  0  0  0  0  0  0  0  0  0
   34.1882   38.7658   27.0085 C   0  0  0  0  0  0  0  0  0  0  0  0
   35.6150   38.9155   27.5627 C   0  0  0  0  0  0  0  0  0  0  0  0
   35.8442   40.3202   28.1499 C   0  0  0  0  0  0  0  0  0  0  0  0
   34.8434   40.5890   29.1907 N   0  0  0  0  0  0  0  0  0  0  0  0
   33.4646   40.5506   28.6798 C   0  0  0  0  0  0  0  0  0  0  0  0
   33.1566   39.1725   28.0725 C   0  0  0  0  0  0  0  0  0  0  0  0
   35.1875   40.8558   30.4754 C   0  0  0  0  0  0  0  0  0  0  0  0
   36.3579   40.8819   30.8581 O   0  0  0  0  0  0  0  0  0  0  0  0
   34.0914   41.1372   31.5040 C   0  0  0  0  0  0  0  0  0  0  0  0
   36.6000   35.3399   15.3391 H   0  0  0  0  0  0  0  0  0  0  0  0
   36.7202   36.4724   20.1839 H   0  0  0  0  0  0  0  0  0  0  0  0
   38.7723   36.5917   18.8409 H   0  0  0  0  0  0  0  0  0  0  0  0
   34.1712   38.2288   19.8389 H   0  0  0  0  0  0  0  0  0  0  0  0
   34.4944   33.8589   23.7959 H   0  0  0  0  0  0  0  0  0  0  0  0
   35.1372   35.2212   24.6850 H   0  0  0  0  0  0  0  0  0  0  0  0
   33.3952   34.9731   24.5973 H   0  0  0  0  0  0  0  0  0  0  0  0
   34.1578   40.2062   21.4787 H   0  0  0  0  0  0  0  0  0  0  0  0
   33.9480   40.5593   25.8774 H   0  0  0  0  0  0  0  0  0  0  0  0
   34.0161   37.7110   26.7900 H   0  0  0  0  0  0  0  0  0  0  0  0
   36.3532   38.6986   26.7892 H   0  0  0  0  0  0  0  0  0  0  0  0
   35.7586   38.1735   28.3485 H   0  0  0  0  0  0  0  0  0  0  0  0
   35.7549   41.0782   27.3720 H   0  0  0  0  0  0  0  0  0  0  0  0
   36.8687   40.3906   28.5176 H   0  0  0  0  0  0  0  0  0  0  0  0
   32.7104   40.7491   29.4356 H   0  0  0  0  0  0  0  0  0  0  0  0
   33.3522   41.3280   27.9242 H   0  0  0  0  0  0  0  0  0  0  0  0
   33.1554   38.4288   28.8695 H   0  0  0  0  0  0  0  0  0  0  0  0
   32.1535   39.1644   27.6458 H   0  0  0  0  0  0  0  0  0  0  0  0
   33.4945   42.0027   31.2092 H   0  0  0  0  0  0  0  0  0  0  0  0
   34.5296   41.3537   32.4798 H   0  0  0  0  0  0  0  0  0  0  0  0
   33.4344   40.2736   31.6148 H   0  0  0  0  0  0  0  0  0  0  0  0
  1  2  1  0
  2  8  2  0
  2  3  1  0
  3  4  2  0
  3 32  1  0
  4  5  1  0
  4  6  1  0
  6  7  2  0
  6  9  1  0
  7  8  1  0
  7 33  1  0
  8 34  1  0
  9 10  1  0
 10 11  2  0
 10 12  1  0
 11 17  1  0
 11 35  1  0
 12 13  2  0
 12 14  1  0
 14 15  1  0
 14 16  1  0
 15 36  1  0
 15 37  1  0
 15 38  1  0
 16 17  2  0
 16 18  1  0
 17 21  1  0
 18 19  2  0
 19 20  1  0
 19 22  1  0
 20 21  2  0
 21 39  1  0
 22 23  1  0
 22 40  1  0
 23 28  1  0
 23 24  1  0
 23 41  1  0
 24 25  1  0
 24 42  1  0
 24 43  1  0
 25 26  1  0
 25 44  1  0
 25 45  1  0
 26 27  1  0
 26 29  1  0
 27 28  1  0
 27 46  1  0
 27 47  1  0
 28 48  1  0
 28 49  1  0
 29 30  2  0
 29 31  1  0
 31 50  1  0
 31 51  1  0
 31 52  1  0
M  END
>  <s_m_entry_id>  (1) 
748

>  <i_f3d_flags>  (1) 
0

>  <r_lp_tautomer_probability>  (1) 
1

>  <r_epik_Ionization_Penalty>  (1) 
  0.0000

>  <r_epik_State_Penalty>  (1) 
  0.0000

>  <i_epik_Tot_Q>  (1) 
0

>  <s_m_job_name>  (1) 
glide-dock_SP_p38_all_ligs_no_cons_10_poses

>  <r_i_docking_score>  (1) 
-7.38543266333266

>  <r_i_glide_gscore>  (1) 
-7.38543266333266

>  <r_i_glide_emodel>  (1) 
-62.6541525953837

>  <index_string>  (1) 
32:0:0

$$$$
