36:0:0
     RDKit          3D

 53 58  0  0  1  0  0  0  0  0999 V2000
   -5.8452   -1.9797   15.9021 C   0  0  0  0  0  0  0  0  0  0  0  0
   -4.3784   -1.5352   15.7943 C   0  0  0  0  0  0  0  0  0  0  0  0
   -3.5540   -2.5356   14.9651 C   0  0  0  0  0  0  0  0  0  0  0  0
   -4.2813   -2.8346   13.6366 C   0  0  0  0  0  0  0  0  0  0  0  0
   -5.7586   -3.1876   13.8765 C   0  0  0  0  0  0  0  0  0  0  0  0
   -6.3893   -2.1339   14.5950 O   0  0  0  0  0  0  0  0  0  0  0  0
   -2.1203   -2.0613   14.7492 C   0  0  0  0  0  0  0  0  0  0  0  0
   -1.0621   -2.6384   15.4830 C   0  0  0  0  0  0  0  0  0  0  0  0
    0.2665   -2.1978   15.2941 C   0  0  0  0  0  0  0  0  0  0  0  0
    0.5658   -1.1842   14.3580 C   0  0  0  0  0  0  0  0  0  0  0  0
    1.9116   -0.7994   14.1911 N   0  0  0  0  0  0  0  0  0  0  0  0
    2.4641    0.4392   13.8176 C   0  0  0  0  0  0  0  0  0  0  0  0
    1.7014    1.3474   13.2856 N   0  0  0  0  0  0  0  0  0  0  0  0
    2.1956    2.5970   13.0106 C   0  0  0  0  0  0  0  0  0  0  0  0
    3.5052    2.9398   13.2482 C   0  0  0  0  0  0  0  0  0  0  0  0
    4.3077    1.9980   13.8154 N   0  0  0  0  0  0  0  0  0  0  0  0
    5.6304    2.0356   14.2171 C   0  0  0  0  0  0  0  0  0  0  0  0
    5.9001    0.8185   14.7825 C   0  0  0  0  0  0  0  0  0  0  0  0
    4.7760    0.0048   14.7587 N   0  0  0  0  0  0  0  0  0  0  0  0
    3.8295    0.7043   14.1352 C   0  0  0  0  0  0  0  0  0  0  0  0
    1.1928    3.5543   12.4931 C   0  0  0  0  0  0  0  0  0  0  0  0
    0.1245    3.1147   11.6722 C   0  0  0  0  0  0  0  0  0  0  0  0
   -0.8486    4.0044   11.1779 C   0  0  0  0  0  0  0  0  0  0  0  0
   -0.7967    5.3744   11.5078 C   0  0  0  0  0  0  0  0  0  0  0  0
   -1.5680    6.5455   11.2307 C   0  0  0  0  0  0  0  0  0  0  0  0
   -1.0622    7.6039   11.8167 N   0  0  0  0  0  0  0  0  0  0  0  0
    0.0303    7.1622   12.4908 N   0  0  0  0  0  0  0  0  0  0  0  0
    0.2691    5.8080   12.3406 C   0  0  0  0  0  0  0  0  0  0  0  0
    1.2570    4.9290   12.8198 C   0  0  0  0  0  0  0  0  0  0  0  0
   -0.4993   -0.6260   13.6129 C   0  0  0  0  0  0  0  0  0  0  0  0
   -1.8258   -1.0425   13.8204 C   0  0  0  0  0  0  0  0  0  0  0  0
   -5.9315   -2.9096   16.4664 H   0  0  0  0  0  0  0  0  0  0  0  0
   -6.4250   -1.2299   16.4386 H   0  0  0  0  0  0  0  0  0  0  0  0
   -3.9702   -1.4341   16.7983 H   0  0  0  0  0  0  0  0  0  0  0  0
   -4.3356   -0.5473   15.3366 H   0  0  0  0  0  0  0  0  0  0  0  0
   -3.5136   -3.4702   15.5263 H   0  0  0  0  0  0  0  0  0  0  0  0
   -4.2497   -1.9747   12.9706 H   0  0  0  0  0  0  0  0  0  0  0  0
   -3.7819   -3.6476   13.1079 H   0  0  0  0  0  0  0  0  0  0  0  0
   -5.8509   -4.1299   14.4211 H   0  0  0  0  0  0  0  0  0  0  0  0
   -6.2727   -3.3193   12.9241 H   0  0  0  0  0  0  0  0  0  0  0  0
   -1.2628   -3.4154   16.2090 H   0  0  0  0  0  0  0  0  0  0  0  0
    1.0498   -2.6574   15.8778 H   0  0  0  0  0  0  0  0  0  0  0  0
    2.5815   -1.3959   14.6519 H   0  0  0  0  0  0  0  0  0  0  0  0
    3.9308    3.9189   13.0510 H   0  0  0  0  0  0  0  0  0  0  0  0
    6.2351    2.9175   14.0617 H   0  0  0  0  0  0  0  0  0  0  0  0
    6.8242    0.4633   15.2159 H   0  0  0  0  0  0  0  0  0  0  0  0
    0.0379    2.0690   11.4168 H   0  0  0  0  0  0  0  0  0  0  0  0
   -1.6436    3.6362   10.5446 H   0  0  0  0  0  0  0  0  0  0  0  0
   -2.4645    6.6411   10.6339 H   0  0  0  0  0  0  0  0  0  0  0  0
    0.6088    7.8049   13.0307 H   0  0  0  0  0  0  0  0  0  0  0  0
    2.0386    5.3102   13.4589 H   0  0  0  0  0  0  0  0  0  0  0  0
   -0.3322    0.1202   12.8567 H   0  0  0  0  0  0  0  0  0  0  0  0
   -2.6047   -0.5783   13.2356 H   0  0  0  0  0  0  0  0  0  0  0  0
  1  2  1  0
  1  6  1  0
  1 32  1  0
  1 33  1  0
  2  3  1  0
  2 34  1  0
  2 35  1  0
  3  4  1  0
  3  7  1  0
  3 36  1  0
  4  5  1  0
  4 37  1  0
  4 38  1  0
  5  6  1  0
  5 39  1  0
  5 40  1  0
  7  8  2  0
  7 31  1  0
  8  9  1  0
  8 41  1  0
  9 10  2  0
  9 42  1  0
 10 11  1  0
 10 30  1  0
 11 12  1  0
 11 43  1  0
 12 13  2  0
 12 20  1  0
 13 14  1  0
 14 15  2  0
 14 21  1  0
 15 16  1  0
 15 44  1  0
 16 17  1  0
 16 20  1  0
 17 18  2  0
 17 45  1  0
 18 19  1  0
 18 46  1  0
 19 20  2  0
 21 22  2  0
 21 29  1  0
 22 23  1  0
 22 47  1  0
 23 24  2  0
 23 48  1  0
 24 25  1  0
 24 28  1  0
 25 26  2  0
 25 49  1  0
 26 27  1  0
 27 28  1  0
 27 50  1  0
 28 29  2  0
 29 51  1  0
 30 31  2  0
 30 52  1  0
 31 53  1  0
M  END
>  <s_m_entry_id>  (1) 
716

>  <IC50[nM]>  (1) 
3.8

>  <s_m_Source_Path>  (1) 
/projects/mai/users/kmzp800_harry/pmx_colab/docking_jobs/syk

>  <s_m_Source_File>  (1) 
tnks2_lig.sdf

>  <i_m_Source_File_Index>  (1) 
37

>  <s_m_job_name>  (1) 
glide-dock_SP_tnks2_no_const

>  <r_i_docking_score>  (1) 
-6.2393199911561

>  <r_i_glide_gscore>  (1) 
-6.2393199911561

>  <r_i_glide_emodel>  (1) 
-63.974037171443

>  <index_string>  (1) 
36:0:0

$$$$
