19:0:0
     RDKit          3D

 49 52  0  0  1  0  0  0  0  0999 V2000
   38.9517   36.3495   15.9127 F   0  0  0  0  0  0  0  0  0  0  0  0
   37.9033   36.0854   16.7173 C   0  0  0  0  0  0  0  0  0  0  0  0
   38.0514   36.1515   18.1136 C   0  0  0  0  0  0  0  0  0  0  0  0
   36.9363   35.9569   18.9503 C   0  0  0  0  0  0  0  0  0  0  0  0
   37.1197   35.9845   20.2887 F   0  0  0  0  0  0  0  0  0  0  0  0
   35.6634   35.6712   18.3886 C   0  0  0  0  0  0  0  0  0  0  0  0
   35.5452   35.5483   16.9912 C   0  0  0  0  0  0  0  0  0  0  0  0
   36.6540   35.7725   16.1584 C   0  0  0  0  0  0  0  0  0  0  0  0
   34.5277   35.4328   19.1254 O   0  0  0  0  0  0  0  0  0  0  0  0
   34.3635   36.0267   20.3476 C   0  0  0  0  0  0  0  0  0  0  0  0
   34.3988   37.3673   20.4852 C   0  0  0  0  0  0  0  0  0  0  0  0
   34.1481   35.1364   21.4898 C   0  0  0  0  0  0  0  0  0  0  0  0
   34.1525   33.9148   21.3450 O   0  0  0  0  0  0  0  0  0  0  0  0
   33.9729   35.7257   22.7080 N   0  0  0  0  0  0  0  0  0  0  0  0
   33.7515   34.8844   23.8959 C   0  0  0  0  0  0  0  0  0  0  0  0
   34.0421   37.1428   22.9130 C   0  0  0  0  0  0  0  0  0  0  0  0
   34.2538   37.9800   21.7974 C   0  0  0  0  0  0  0  0  0  0  0  0
   33.9288   37.6893   24.1424 N   0  0  0  0  0  0  0  0  0  0  0  0
   34.0323   39.0107   24.2598 C   0  0  0  0  0  0  0  0  0  0  0  0
   34.2353   39.8811   23.2711 N   0  0  0  0  0  0  0  0  0  0  0  0
   34.3426   39.3657   22.0295 C   0  0  0  0  0  0  0  0  0  0  0  0
   33.9567   39.5492   25.5241 N   0  0  0  0  0  0  0  0  0  0  0  0
   33.3713   38.8994   26.6886 C   0  0  0  0  0  0  0  0  0  0  0  0
   31.8484   39.1413   26.7411 C   0  0  0  0  0  0  0  0  0  0  0  0
   31.2216   38.5300   28.0059 C   0  0  0  0  0  0  0  0  0  0  0  0
   31.9098   39.0559   29.2783 C   0  0  0  0  0  0  0  0  0  0  0  0
   31.3424   38.4337   30.4110 O   0  0  0  0  0  0  0  0  0  0  0  0
   33.4214   38.7845   29.2306 C   0  0  0  0  0  0  0  0  0  0  0  0
   34.0466   39.4131   27.9744 C   0  0  0  0  0  0  0  0  0  0  0  0
   33.5506   37.8249   26.6275 H   0  0  0  0  0  0  0  0  0  0  0  0
   31.7541   40.1304   29.3760 H   0  0  0  0  0  0  0  0  0  0  0  0
   39.0224   36.3498   18.5424 H   0  0  0  0  0  0  0  0  0  0  0  0
   34.5854   35.3130   16.5535 H   0  0  0  0  0  0  0  0  0  0  0  0
   36.5391   35.7222   15.0888 H   0  0  0  0  0  0  0  0  0  0  0  0
   34.5548   38.0119   19.6323 H   0  0  0  0  0  0  0  0  0  0  0  0
   34.6347   34.9073   24.5352 H   0  0  0  0  0  0  0  0  0  0  0  0
   32.9088   35.2602   24.4774 H   0  0  0  0  0  0  0  0  0  0  0  0
   33.5312   33.8381   23.6798 H   0  0  0  0  0  0  0  0  0  0  0  0
   34.5131   40.0620   21.2218 H   0  0  0  0  0  0  0  0  0  0  0  0
   34.0011   40.5634   25.5607 H   0  0  0  0  0  0  0  0  0  0  0  0
   31.6461   40.2133   26.7174 H   0  0  0  0  0  0  0  0  0  0  0  0
   31.3701   38.7183   25.8568 H   0  0  0  0  0  0  0  0  0  0  0  0
   31.3085   37.4432   27.9614 H   0  0  0  0  0  0  0  0  0  0  0  0
   30.1538   38.7479   28.0346 H   0  0  0  0  0  0  0  0  0  0  0  0
   30.4180   38.6472   30.4407 H   0  0  0  0  0  0  0  0  0  0  0  0
   33.6077   37.7094   29.2327 H   0  0  0  0  0  0  0  0  0  0  0  0
   33.9027   39.1861   30.1231 H   0  0  0  0  0  0  0  0  0  0  0  0
   35.1145   39.1921   27.9479 H   0  0  0  0  0  0  0  0  0  0  0  0
   33.9569   40.4996   28.0317 H   0  0  0  0  0  0  0  0  0  0  0  0
  1  2  1  0
  2  8  2  0
  2  3  1  0
  3  4  2  0
  3 32  1  0
  4  5  1  0
  4  6  1  0
  6  7  2  0
  6  9  1  0
  7  8  1  0
  7 33  1  0
  8 34  1  0
  9 10  1  0
 10 11  2  0
 10 12  1  0
 11 17  1  0
 11 35  1  0
 12 13  2  0
 12 14  1  0
 14 15  1  0
 14 16  1  0
 15 36  1  0
 15 37  1  0
 15 38  1  0
 16 17  2  0
 16 18  1  0
 17 21  1  0
 18 19  2  0
 19 20  1  0
 19 22  1  0
 20 21  2  0
 21 39  1  0
 22 23  1  0
 22 40  1  0
 23 30  1  0
 23 29  1  0
 23 24  1  0
 24 25  1  0
 24 41  1  0
 24 42  1  0
 25 26  1  0
 25 43  1  0
 25 44  1  0
 26 31  1  0
 26 27  1  0
 26 28  1  0
 27 45  1  0
 28 29  1  0
 28 46  1  0
 28 47  1  0
 29 48  1  0
 29 49  1  0
M  END
>  <s_m_entry_id>  (1) 
735

>  <i_f3d_flags>  (1) 
0

>  <r_lp_tautomer_probability>  (1) 
1

>  <r_epik_Ionization_Penalty>  (1) 
  0.0000

>  <r_epik_State_Penalty>  (1) 
  0.0000

>  <i_epik_Tot_Q>  (1) 
0

>  <s_m_job_name>  (1) 
glide-dock_SP_p38_all_ligs_no_cons_10_poses

>  <r_i_docking_score>  (1) 
-7.91577835904475

>  <r_i_glide_gscore>  (1) 
-7.91577835904475

>  <r_i_glide_emodel>  (1) 
-64.64891279674

>  <index_string>  (1) 
19:0:0

$$$$
