21:0:0
     RDKit          3D

 49 51  0  0  1  0  0  0  0  0999 V2000
   32.8960   39.4080   25.5680 N   0  0  0  0  0  0  0  0  0  0  0  0
   33.0520   38.8640   24.2560 C   0  0  0  0  0  0  0  0  0  0  0  0
   32.8760   39.6660   23.1720 N   0  0  0  0  0  0  0  0  0  0  0  0
   33.0190   39.1820   21.9110 C   0  0  0  0  0  0  0  0  0  0  0  0
   33.3520   37.8450   21.7180 C   0  0  0  0  0  0  0  0  0  0  0  0
   33.5000   37.3170   20.4410 C   0  0  0  0  0  0  0  0  0  0  0  0
   33.8230   35.9710   20.2790 C   0  0  0  0  0  0  0  0  0  0  0  0
   34.0360   35.1720   21.4220 C   0  0  0  0  0  0  0  0  0  0  0  0
   34.3980   33.9710   21.2880 O   0  0  0  0  0  0  0  0  0  0  0  0
   33.8760   35.7050   22.6760 N   0  0  0  0  0  0  0  0  0  0  0  0
   34.0840   34.8600   23.8480 C   0  0  0  0  0  0  0  0  0  0  0  0
   33.5380   37.0210   22.8410 C   0  0  0  0  0  0  0  0  0  0  0  0
   33.3840   37.5550   24.0850 N   0  0  0  0  0  0  0  0  0  0  0  0
   33.0000   38.6000   26.7730 C   0  0  0  0  0  0  0  0  0  0  0  0
   31.7280   38.7400   27.6040 C   0  0  0  0  0  0  0  0  0  0  0  0
   30.7370   37.6290   27.2980 C   0  0  0  0  0  0  0  0  0  0  0  0
   31.2380   36.8110   26.2850 O   0  0  0  0  0  0  0  0  0  0  0  0
   34.1930   39.0730   27.5840 C   0  0  0  0  0  0  0  0  0  0  0  0
   35.4710   38.4500   27.0550 C   0  0  0  0  0  0  0  0  0  0  0  0
   35.1950   37.1800   26.5500 O   0  0  0  0  0  0  0  0  0  0  0  0
   33.9690   35.4710   18.9770 O   0  0  0  0  0  0  0  0  0  0  0  0
   35.1200   35.6170   18.1880 C   0  0  0  0  0  0  0  0  0  0  0  0
   36.3800   35.8580   18.7610 C   0  0  0  0  0  0  0  0  0  0  0  0
   37.5130   35.9770   17.9520 C   0  0  0  0  0  0  0  0  0  0  0  0
   37.3970   35.8520   16.5660 C   0  0  0  0  0  0  0  0  0  0  0  0
   38.4950   35.9680   15.7810 F   0  0  0  0  0  0  0  0  0  0  0  0
   36.1500   35.6010   15.9900 C   0  0  0  0  0  0  0  0  0  0  0  0
   35.0140   35.4800   16.7960 C   0  0  0  0  0  0  0  0  0  0  0  0
   33.8100   35.2340   16.2240 F   0  0  0  0  0  0  0  0  0  0  0  0
   32.7017   40.4149   25.6646 H   0  0  0  0  0  0  0  0  0  0  0  0
   32.8721   39.8447   21.0454 H   0  0  0  0  0  0  0  0  0  0  0  0
   33.3624   37.9605   19.5595 H   0  0  0  0  0  0  0  0  0  0  0  0
   33.9372   35.4563   24.7606 H   0  0  0  0  0  0  0  0  0  0  0  0
   33.3636   34.0288   23.8333 H   0  0  0  0  0  0  0  0  0  0  0  0
   35.1079   34.4582   23.8333 H   0  0  0  0  0  0  0  0  0  0  0  0
   33.1315   37.5433   26.4970 H   0  0  0  0  0  0  0  0  0  0  0  0
   31.9920   38.6994   28.6711 H   0  0  0  0  0  0  0  0  0  0  0  0
   31.2563   39.7016   27.3533 H   0  0  0  0  0  0  0  0  0  0  0  0
   30.5721   37.0277   28.2042 H   0  0  0  0  0  0  0  0  0  0  0  0
   29.7862   38.0728   26.9679 H   0  0  0  0  0  0  0  0  0  0  0  0
   31.7105   36.0396   26.6872 H   0  0  0  0  0  0  0  0  0  0  0  0
   34.2676   40.1683   27.5144 H   0  0  0  0  0  0  0  0  0  0  0  0
   34.0551   38.7700   28.6324 H   0  0  0  0  0  0  0  0  0  0  0  0
   35.8824   39.0816   26.2539 H   0  0  0  0  0  0  0  0  0  0  0  0
   36.2041   38.3686   27.8710 H   0  0  0  0  0  0  0  0  0  0  0  0
   35.0579   36.5491   27.3005 H   0  0  0  0  0  0  0  0  0  0  0  0
   36.4751   35.9535   19.8527 H   0  0  0  0  0  0  0  0  0  0  0  0
   38.4960   36.1691   18.4067 H   0  0  0  0  0  0  0  0  0  0  0  0
   36.0611   35.4981   14.8984 H   0  0  0  0  0  0  0  0  0  0  0  0
  1 14  1  0
  1  2  1  0
  1 30  1  0
  2  3  2  0
  2 13  1  0
  3  4  1  0
  4  5  2  0
  4 31  1  0
  5 12  1  0
  5  6  1  0
  6  7  2  0
  6 32  1  0
  7  8  1  0
  7 21  1  0
  8 10  1  0
  8  9  2  0
 10 12  1  0
 10 11  1  0
 11 33  1  0
 11 34  1  0
 11 35  1  0
 12 13  2  0
 14 18  1  0
 14 15  1  0
 14 36  1  0
 15 16  1  0
 15 37  1  0
 15 38  1  0
 16 17  1  0
 16 39  1  0
 16 40  1  0
 17 41  1  0
 18 19  1  0
 18 42  1  0
 18 43  1  0
 19 20  1  0
 19 44  1  0
 19 45  1  0
 20 46  1  0
 21 22  1  0
 22 23  2  0
 22 28  1  0
 23 24  1  0
 23 47  1  0
 24 25  2  0
 24 48  1  0
 25 26  1  0
 25 27  1  0
 27 28  2  0
 27 49  1  0
 28 29  1  0
M  END
>  <s_m_entry_id>  (1) 
1376

>  <MODEL>  (1) 
1

>  <REMARK>  (1) 
 VINA RESULT:    -7.170      0.000      0.000
 INTER + INTRA:         -12.308
 INTER:                 -10.523
 INTRA:                  -1.785
 UNBOUND:                -1.785
  Name = /scratch/kmzp800/tmp61vtqhvc/tmpoyy2shi6.pdb
  10 active torsions:
  status: ('A' for Active; 'I' for Inactive)
    1  A    between atoms: O1_1  and  C1_2
    2  A    between atoms: C1_2  and  C2_3
    3  A    between atoms: C2_3  and  C3_4
    4  A    between atoms: C3_4  and  N1_5
    5  A    between atoms: C3_4  and  C18_27
    6  A    between atoms: C8_11  and  O2_12
    7  A    between atoms: O2_12  and  C9_13
    8  A    between atoms: N3_23  and  C16_24
    9  A    between atoms: C18_27  and  C19_28
   10  A    between atoms: C19_28  and  O4_29
                            x       y       z     vdW  Elec       q    Type
                         _______ _______ _______ _____ _____    ______ ____

>  <TORSDO>  (1) 
F 9

>  <grid_id>  (1) 
p38-prepared

>  <grid_path>  (1) 
/projects/mai/users/kmzp800_harry/pmx_colab/docking_jobs/p38/vina_docking/input_files/p38_vina.pdbqt

>  <grid_filename>  (1) 
p38_vina.pdbqt

>  <docking_score>  (1) 
-7.17

>  <compound_name>  (1) 
lig_p38a_3flw

>  <index_string>  (1) 
21:0:0

>  <s_m_Source_Path>  (1) 
/projects/mai/users/kmzp800_harry/pmx_colab/docking_jobs/p38

>  <s_m_Source_File>  (1) 
p38_confs_vina_naive.sdf

>  <i_m_Source_File_Index>  (1) 
23

$$$$
