5:0:0
     RDKit          3D

 39 41  0  0  1  0  0  0  0  0999 V2000
  -14.4040  -14.8980  -27.7214 C   0  0  0  0  0  0  0  0  0  0  0  0
  -15.0170  -15.6382  -26.7007 C   0  0  0  0  0  0  0  0  0  0  0  0
  -14.4499  -13.5055  -27.6874 C   0  0  0  0  0  0  0  0  0  0  0  0
  -15.7346  -15.0225  -25.6540 C   0  0  0  0  0  0  0  0  0  0  0  0
  -14.8480  -17.0292  -26.7509 N   0  0  0  0  0  0  0  0  0  0  0  0
  -15.1796  -12.8688  -26.6743 C   0  0  0  0  0  0  0  0  0  0  0  0
  -15.8266  -13.6092  -25.6476 C   0  0  0  0  0  0  0  0  0  0  0  0
  -16.3513  -15.9448  -24.6232 C   0  0  0  0  0  0  0  0  0  0  0  0
  -16.1225  -17.2479  -24.8128 N   0  0  0  0  0  0  0  0  0  0  0  0
  -17.0202  -15.5726  -23.6697 O   0  0  0  0  0  0  0  0  0  0  0  0
  -15.3705  -17.8007  -25.8449 C   0  0  0  0  0  0  0  0  0  0  0  0
  -15.2127  -19.2788  -25.9305 C   0  0  0  0  0  0  0  0  0  0  0  0
  -15.4597  -20.1118  -24.8257 C   0  0  0  0  0  0  0  0  0  0  0  0
  -15.2242  -21.4961  -24.9171 C   0  0  0  0  0  0  0  0  0  0  0  0
  -14.7527  -22.0884  -26.1117 C   0  0  0  0  0  0  0  0  0  0  0  0
  -14.5352  -21.2376  -27.2153 C   0  0  0  0  0  0  0  0  0  0  0  0
  -14.7748  -19.8656  -27.1306 C   0  0  0  0  0  0  0  0  0  0  0  0
  -15.2483  -11.5265  -26.7389 F   0  0  0  0  0  0  0  0  0  0  0  0
  -14.4667  -23.5935  -26.1762 C   0  0  0  0  0  0  0  0  0  0  0  0
  -13.2559  -23.9109  -25.2788 C   0  0  0  0  0  0  0  0  0  0  0  0
  -14.1013  -24.0990  -27.5795 C   0  0  0  0  0  0  0  0  0  0  0  0
  -15.7303  -24.3726  -25.7571 C   0  0  0  0  0  0  0  0  0  0  0  0
  -13.8570  -15.4035  -28.5048 H   0  0  0  0  0  0  0  0  0  0  0  0
  -13.9589  -12.9209  -28.4526 H   0  0  0  0  0  0  0  0  0  0  0  0
  -16.3802  -13.0953  -24.8713 H   0  0  0  0  0  0  0  0  0  0  0  0
  -16.5674  -17.8816  -24.1633 H   0  0  0  0  0  0  0  0  0  0  0  0
  -15.7956  -19.7034  -23.8844 H   0  0  0  0  0  0  0  0  0  0  0  0
  -15.3914  -22.1093  -24.0461 H   0  0  0  0  0  0  0  0  0  0  0  0
  -14.1495  -21.5727  -28.1561 H   0  0  0  0  0  0  0  0  0  0  0  0
  -14.5682  -19.2575  -28.0008 H   0  0  0  0  0  0  0  0  0  0  0  0
  -12.8473  -24.8878  -25.5373 H   0  0  0  0  0  0  0  0  0  0  0  0
  -13.4961  -23.8877  -24.2175 H   0  0  0  0  0  0  0  0  0  0  0  0
  -12.4486  -23.1948  -25.4427 H   0  0  0  0  0  0  0  0  0  0  0  0
  -14.9048  -23.9345  -28.2963 H   0  0  0  0  0  0  0  0  0  0  0  0
  -13.1840  -23.6329  -27.9386 H   0  0  0  0  0  0  0  0  0  0  0  0
  -13.9182  -25.1738  -27.5730 H   0  0  0  0  0  0  0  0  0  0  0  0
  -16.5912  -24.0404  -26.3381 H   0  0  0  0  0  0  0  0  0  0  0  0
  -15.6394  -25.4423  -25.9389 H   0  0  0  0  0  0  0  0  0  0  0  0
  -15.9752  -24.2369  -24.7039 H   0  0  0  0  0  0  0  0  0  0  0  0
  1  2  2  0
  1  3  1  0
  1 23  1  0
  2  4  1  0
  2  5  1  0
  3  6  2  0
  3 24  1  0
  4  7  2  0
  4  8  1  0
  5 11  2  0
  6  7  1  0
  6 18  1  0
  7 25  1  0
  8  9  1  0
  8 10  2  0
  9 11  1  0
  9 26  1  0
 11 12  1  0
 12 13  2  0
 12 17  1  0
 13 14  1  0
 13 27  1  0
 14 15  2  0
 14 28  1  0
 15 16  1  0
 15 19  1  0
 16 17  2  0
 16 29  1  0
 17 30  1  0
 19 20  1  0
 19 21  1  0
 19 22  1  0
 20 31  1  0
 20 32  1  0
 20 33  1  0
 21 34  1  0
 21 35  1  0
 21 36  1  0
 22 37  1  0
 22 38  1  0
 22 39  1  0
M  END
>  <s_m_entry_id>  (1) 
447

>  <Name>  (1) 
3b

>  <IC50[nM]>  (1) 
3.6

>  <s_m_Source_Path>  (1) 
/projects/mai/users/kmzp800_harry/pmx_colab/docking_jobs/tnks2

>  <s_m_Source_File>  (1) 
tnks2_lig.sdf

>  <i_m_Source_File_Index>  (1) 
6

>  <s_m_job_name>  (1) 
glide-dock_SP_tnks2_core_const

>  <r_i_docking_score>  (1) 
-10.6156609355518

>  <r_i_glide_gscore>  (1) 
-10.6156609355518

>  <r_i_glide_emodel>  (1) 
-39.0046013133413

>  <index_string>  (1) 
5:0:0

$$$$
