9:0:0
     RDKit          3D

 47 49  0  0  1  0  0  0  0  0999 V2000
  -15.0636  -19.0935  -25.9357 C   0  0  0  0  0  0  0  0  0  0  0  0
  -14.8482  -19.7893  -27.1386 C   0  0  0  0  0  0  0  0  0  0  0  0
  -15.0992  -19.8167  -24.7238 C   0  0  0  0  0  0  0  0  0  0  0  0
  -14.6206  -21.1727  -27.1252 C   0  0  0  0  0  0  0  0  0  0  0  0
  -14.8482  -21.2007  -24.7116 C   0  0  0  0  0  0  0  0  0  0  0  0
  -14.7759  -16.8703  -26.9019 N   0  0  0  0  0  0  0  0  0  0  0  0
  -14.5524  -21.8855  -25.9130 C   0  0  0  0  0  0  0  0  0  0  0  0
  -14.1650  -23.3644  -25.9336 C   0  0  0  0  0  0  0  0  0  0  0  0
  -14.9279  -15.4681  -26.8645 C   0  0  0  0  0  0  0  0  0  0  0  0
  -15.6482  -14.8540  -25.8066 C   0  0  0  0  0  0  0  0  0  0  0  0
  -15.1626  -12.6595  -26.7386 C   0  0  0  0  0  0  0  0  0  0  0  0
  -14.4482  -13.2496  -27.7763 C   0  0  0  0  0  0  0  0  0  0  0  0
  -15.7730  -13.4486  -25.7450 C   0  0  0  0  0  0  0  0  0  0  0  0
  -14.3315  -14.6413  -27.8560 C   0  0  0  0  0  0  0  0  0  0  0  0
  -16.2178  -15.7403  -24.7413 C   0  0  0  0  0  0  0  0  0  0  0  0
  -15.9790  -17.0465  -24.8912 N   0  0  0  0  0  0  0  0  0  0  0  0
  -15.2486  -17.6150  -25.9386 C   0  0  0  0  0  0  0  0  0  0  0  0
  -16.8482  -15.3114  -23.7852 O   0  0  0  0  0  0  0  0  0  0  0  0
  -15.4674  -24.1876  -25.9193 C   0  0  0  0  0  0  0  0  0  0  0  0
  -13.4209  -23.6252  -27.1358 O   0  0  0  0  0  0  0  0  0  0  0  0
  -13.2482  -23.6694  -24.7236 C   0  0  0  0  0  0  0  0  0  0  0  0
  -13.5134  -15.1727  -29.0066 C   0  0  0  0  0  0  0  0  0  0  0  0
  -15.2482  -11.3194  -26.7386 F   0  0  0  0  0  0  0  0  0  0  0  0
  -13.0150  -24.9567  -27.4465 C   0  0  0  0  0  0  0  0  0  0  0  0
  -12.1020  -24.9247  -28.6799 C   0  0  0  0  0  0  0  0  0  0  0  0
  -10.8488  -24.3727  -28.3386 O   0  0  0  0  0  0  0  0  0  0  0  0
  -14.8325  -19.2653  -28.0827 H   0  0  0  0  0  0  0  0  0  0  0  0
  -15.2945  -19.3210  -23.7853 H   0  0  0  0  0  0  0  0  0  0  0  0
  -14.4397  -21.6614  -28.0612 H   0  0  0  0  0  0  0  0  0  0  0  0
  -14.8624  -21.7126  -23.7622 H   0  0  0  0  0  0  0  0  0  0  0  0
  -13.9862  -12.6092  -28.5152 H   0  0  0  0  0  0  0  0  0  0  0  0
  -16.3177  -12.9761  -24.9394 H   0  0  0  0  0  0  0  0  0  0  0  0
  -16.3800  -17.6635  -24.1987 H   0  0  0  0  0  0  0  0  0  0  0  0
  -16.0476  -23.9835  -25.0195 H   0  0  0  0  0  0  0  0  0  0  0  0
  -16.0941  -23.9443  -26.7778 H   0  0  0  0  0  0  0  0  0  0  0  0
  -15.2893  -25.2575  -25.9421 H   0  0  0  0  0  0  0  0  0  0  0  0
  -13.7635  -23.5470  -23.7730 H   0  0  0  0  0  0  0  0  0  0  0  0
  -12.8477  -24.6781  -24.7046 H   0  0  0  0  0  0  0  0  0  0  0  0
  -12.3950  -22.9934  -24.7276 H   0  0  0  0  0  0  0  0  0  0  0  0
  -13.3289  -14.4096  -29.7634 H   0  0  0  0  0  0  0  0  0  0  0  0
  -12.5545  -15.5726  -28.6938 H   0  0  0  0  0  0  0  0  0  0  0  0
  -14.0482  -15.9727  -29.4795 H   0  0  0  0  0  0  0  0  0  0  0  0
  -13.8930  -25.5580  -27.6809 H   0  0  0  0  0  0  0  0  0  0  0  0
  -12.4935  -25.4516  -26.6298 H   0  0  0  0  0  0  0  0  0  0  0  0
  -12.5418  -24.3727  -29.5075 H   0  0  0  0  0  0  0  0  0  0  0  0
  -11.9344  -25.9430  -29.0320 H   0  0  0  0  0  0  0  0  0  0  0  0
  -10.6208  -24.6825  -27.4713 H   0  0  0  0  0  0  0  0  0  0  0  0
  1  2  2  0
  1  3  1  0
  1 17  1  0
  2  4  1  0
  2 27  1  0
  3  5  2  0
  3 28  1  0
  4  7  2  0
  4 29  1  0
  5  7  1  0
  5 30  1  0
  6  9  1  0
  6 17  2  0
  7  8  1  0
  8 19  1  0
  8 20  1  0
  8 21  1  0
  9 10  2  0
  9 14  1  0
 10 13  1  0
 10 15  1  0
 11 12  1  0
 11 13  2  0
 11 23  1  0
 12 14  2  0
 12 31  1  0
 13 32  1  0
 14 22  1  0
 15 16  1  0
 15 18  2  0
 16 17  1  0
 16 33  1  0
 19 34  1  0
 19 35  1  0
 19 36  1  0
 20 24  1  0
 21 37  1  0
 21 38  1  0
 21 39  1  0
 22 40  1  0
 22 41  1  0
 22 42  1  0
 24 25  1  0
 24 43  1  0
 24 44  1  0
 25 26  1  0
 25 45  1  0
 25 46  1  0
 26 47  1  0
M  END
>  <s_m_entry_id>  (1) 
424

>  <Name>  (1) 
5o

>  <IC50[nM]>  (1) 
1.5

>  <s_m_Source_Path>  (1) 
/projects/mai/users/kmzp800_harry/pmx_colab/docking_jobs/tnks2

>  <s_m_Source_File>  (1) 
tnks2_lig.sdf

>  <i_m_Source_File_Index>  (1) 
10

>  <s_m_job_name>  (1) 
glide-dock_SP_tnks2_no_cons

>  <r_i_docking_score>  (1) 
-9.81253959603751

>  <r_i_glide_gscore>  (1) 
-9.81253959603751

>  <r_i_glide_emodel>  (1) 
-58.4885705893742

>  <index_string>  (1) 
9:0:0

$$$$
