15:0:0
     RDKit          3D

 63 66  0  0  1  0  0  0  0  0999 V2000
   42.9740   10.0940   17.7630 C   0  0  0  0  0  0  0  0  0  0  0  0
   43.2640   10.4290   19.0890 C   0  0  0  0  0  0  0  0  0  0  0  0
   43.4270   11.7680   19.4550 C   0  0  0  0  0  0  0  0  0  0  0  0
   43.2980   12.7770   18.4960 C   0  0  0  0  0  0  0  0  0  0  0  0
   43.0060   12.4600   17.1620 C   0  0  0  0  0  0  0  0  0  0  0  0
   42.8480   11.1140   16.8100 C   0  0  0  0  0  0  0  0  0  0  0  0
   42.8490   13.5070   16.1250 C   0  0  0  0  0  0  0  0  0  0  0  0
   43.8970   14.8150   15.9370 S   0  0  0  0  0  0  0  0  0  0  0  0
   43.1240   15.5250   14.6250 C   0  0  0  0  0  0  0  0  0  0  0  0
   42.0220   14.7260   14.2920 C   0  0  0  0  0  0  0  0  0  0  0  0
   41.8590   13.6170   15.1410 C   0  0  0  0  0  0  0  0  0  0  0  0
   40.7390   12.6460   14.9570 C   0  0  0  0  0  0  0  0  0  0  0  0
   43.5180   16.8270   14.0600 C   0  0  0  0  0  0  0  0  0  0  0  0
   43.8530   16.9080   12.8500 O   0  0  0  0  0  0  0  0  0  0  0  0
   43.5910   17.9590   14.8610 O   0  0  0  0  0  0  0  0  0  0  0  0
   41.1550   14.9420   13.2120 O   0  0  0  0  0  0  0  0  0  0  0  0
   40.0910   15.8860   13.2340 C   0  0  0  0  0  0  0  0  0  0  0  0
   40.4690   17.1090   12.4710 C   0  0  0  0  0  0  0  0  0  0  0  0
   40.1630   18.2470   12.9150 O   0  0  0  0  0  0  0  0  0  0  0  0
   41.1920   16.9960   11.2920 O   0  0  0  0  0  0  0  0  0  0  0  0
   42.8100    8.7150   17.4050 N   0  0  0  0  0  0  0  0  0  0  0  0
   38.8510    7.7310   16.2940 N   0  0  0  0  0  0  0  0  0  0  0  0
   39.0360    8.1540   17.6940 C   0  0  0  0  0  0  0  0  0  0  0  0
   40.4250    8.7300   18.0100 C   0  0  0  0  0  0  0  0  0  0  0  0
   41.5230    8.0600   17.1790 C   0  0  0  0  0  0  0  0  0  0  0  0
   41.2020    8.0190   15.6780 C   0  0  0  0  0  0  0  0  0  0  0  0
   39.7630    8.4310   15.3890 C   0  0  0  0  0  0  0  0  0  0  0  0
   37.2370    8.1640   15.8310 S   0  0  0  0  0  0  0  0  0  0  0  0
   36.2910    7.0710   16.2450 O   0  0  0  0  0  0  0  0  0  0  0  0
   36.8420    9.4400   16.5200 O   0  0  0  0  0  0  0  0  0  0  0  0
   37.1490    8.3910   14.0590 C   0  0  0  0  0  0  0  0  0  0  0  0
   36.2930    4.6780   12.0930 C   0  0  0  0  0  0  0  0  0  0  0  0
   35.2750    5.6150   12.2900 C   0  0  0  0  0  0  0  0  0  0  0  0
   35.5540    6.8280   12.9290 C   0  0  0  0  0  0  0  0  0  0  0  0
   36.8530    7.1040   13.3700 C   0  0  0  0  0  0  0  0  0  0  0  0
   37.8700    6.1630   13.1770 C   0  0  0  0  0  0  0  0  0  0  0  0
   37.5910    4.9510   12.5370 C   0  0  0  0  0  0  0  0  0  0  0  0
   43.3641    9.6371   19.8458 H   0  0  0  0  0  0  0  0  0  0  0  0
   43.6570   12.0282   20.4987 H   0  0  0  0  0  0  0  0  0  0  0  0
   43.4268   13.8289   18.7907 H   0  0  0  0  0  0  0  0  0  0  0  0
   42.6207   10.8522   15.7661 H   0  0  0  0  0  0  0  0  0  0  0  0
   40.3675   12.3240   15.9410 H   0  0  0  0  0  0  0  0  0  0  0  0
   39.9240   13.1281   14.3972 H   0  0  0  0  0  0  0  0  0  0  0  0
   41.1007   11.7709   14.3972 H   0  0  0  0  0  0  0  0  0  0  0  0
   39.1969   15.4357   12.7781 H   0  0  0  0  0  0  0  0  0  0  0  0
   39.8819   16.1654   14.2772 H   0  0  0  0  0  0  0  0  0  0  0  0
   43.6611    8.1446   17.2994 H   0  0  0  0  0  0  0  0  0  0  0  0
   38.2850    8.9249   17.9216 H   0  0  0  0  0  0  0  0  0  0  0  0
   38.9261    7.2494   18.3101 H   0  0  0  0  0  0  0  0  0  0  0  0
   40.4212    9.8080   17.7913 H   0  0  0  0  0  0  0  0  0  0  0  0
   40.6386    8.5419   19.0725 H   0  0  0  0  0  0  0  0  0  0  0  0
   41.5784    7.0156   17.5198 H   0  0  0  0  0  0  0  0  0  0  0  0
   41.8805    8.7060   15.1511 H   0  0  0  0  0  0  0  0  0  0  0  0
   41.3346    6.9837   15.3309 H   0  0  0  0  0  0  0  0  0  0  0  0
   39.5124    8.1745   14.3491 H   0  0  0  0  0  0  0  0  0  0  0  0
   39.6604    9.5157   15.5406 H   0  0  0  0  0  0  0  0  0  0  0  0
   36.3528    9.1141   13.8281 H   0  0  0  0  0  0  0  0  0  0  0  0
   38.1218    8.7626   13.7046 H   0  0  0  0  0  0  0  0  0  0  0  0
   36.0734    3.7255   11.5886 H   0  0  0  0  0  0  0  0  0  0  0  0
   34.2540    5.3988   11.9425 H   0  0  0  0  0  0  0  0  0  0  0  0
   34.7522    7.5647   13.0847 H   0  0  0  0  0  0  0  0  0  0  0  0
   38.8901    6.3765   13.5289 H   0  0  0  0  0  0  0  0  0  0  0  0
   38.3919    4.2129   12.3829 H   0  0  0  0  0  0  0  0  0  0  0  0
  1  2  2  0
  1  6  1  0
  1 21  1  0
  2  3  1  0
  2 38  1  0
  3  4  2  0
  3 39  1  0
  4  5  1  0
  4 40  1  0
  5  6  2  0
  5  7  1  0
  6 41  1  0
  7  8  1  0
  7 11  2  0
  8  9  1  0
  9 10  2  0
  9 13  1  0
 10 11  1  0
 10 16  1  0
 11 12  1  0
 12 42  1  0
 12 43  1  0
 12 44  1  0
 13 15  1  0
 13 14  2  0
 16 17  1  0
 17 18  1  0
 17 45  1  0
 17 46  1  0
 18 19  1  0
 18 20  2  0
 21 25  1  0
 21 47  1  0
 22 23  1  0
 22 27  1  0
 22 28  1  0
 23 24  1  0
 23 48  1  0
 23 49  1  0
 24 25  1  0
 24 50  1  0
 24 51  1  0
 25 26  1  0
 25 52  1  0
 26 27  1  0
 26 53  1  0
 26 54  1  0
 27 55  1  0
 27 56  1  0
 28 29  2  0
 28 30  2  0
 28 31  1  0
 31 35  1  0
 31 57  1  0
 31 58  1  0
 32 33  2  0
 32 37  1  0
 32 59  1  0
 33 34  1  0
 33 60  1  0
 34 35  2  0
 34 61  1  0
 35 36  1  0
 36 37  2  0
 36 62  1  0
 37 63  1  0
M  CHG  2  15  -1  19  -1
M  END
>  <s_m_entry_id>  (1) 
1361

>  <MODEL>  (1) 
1

>  <REMARK>  (1) 
 VINA RESULT:    -8.790      0.000      0.000
 INTER + INTRA:         -15.215
 INTER:                 -13.928
 INTRA:                  -1.287
 UNBOUND:                -1.287
  Name = /scratch/kmzp800/tmpi1gvdi6g/tmpop2tgcln.pdb
  11 active torsions:
  status: ('A' for Active; 'I' for Inactive)
    1  A    between atoms: C4_4  and  C5_5
    2  A    between atoms: C5_5  and  S1_6
    3  A    between atoms: S1_6  and  N1_9
    4  A    between atoms: C8_12  and  N2_13
    5  A    between atoms: N2_13  and  C9_14
    6  A    between atoms: C13_18  and  C14_19
    7  A    between atoms: C15_21  and  C16_22
    8  A    between atoms: C17_25  and  O5_26
    9  A    between atoms: O5_26  and  C18_27
   10  A    between atoms: C18_27  and  C19_28
   11  A    between atoms: C20_31  and  C21_32
                            x       y       z     vdW  Elec       q    Type
                         _______ _______ _______ _____ _____    ______ ____

>  <TORSDO>  (1) 
F 10

>  <grid_id>  (1) 
ptp1b-prepared

>  <grid_path>  (1) 
ptp1b_vina.pdbqt

>  <grid_filename>  (1) 
ptp1b_vina.pdbqt

>  <docking_score>  (1) 
-8.79

>  <compound_name>  (1) 
lig_23485

>  <index_string>  (1) 
15:0:0

>  <s_m_Source_Path>  (1) 
/projects/mai/users/kmzp800_harry/pmx_colab/docking_jobs/ptp1b/vina_prep

>  <s_m_Source_File>  (1) 
ptp1b_vina_naive_confs.sdf

>  <i_m_Source_File_Index>  (1) 
16

$$$$
