2:0:0
     RDKit          3D

 42 44  0  0  1  0  0  0  0  0999 V2000
   39.6328   17.8863   12.8851 O   0  0  0  0  0  0  0  0  0  0  0  0
   40.7928   17.4166   12.8940 C   0  0  0  0  0  0  0  0  0  0  0  0
   41.5979   17.4863   11.9350 O   0  0  0  0  0  0  0  0  0  0  0  0
   41.2465   16.7299   14.1850 C   0  0  0  0  0  0  0  0  0  0  0  0
   42.4330   15.9726   13.9757 O   0  0  0  0  0  0  0  0  0  0  0  0
   42.6247   14.9950   14.8890 C   0  0  0  0  0  0  0  0  0  0  0  0
   42.0654   13.6961   14.7933 C   0  0  0  0  0  0  0  0  0  0  0  0
   40.9838   13.2746   13.2940 Br  0  0  0  0  0  0  0  0  0  0  0  0
   42.3905   12.8309   15.8127 C   0  0  0  0  0  0  0  0  0  0  0  0
   43.3838   13.6678   16.9802 S   0  0  0  0  0  0  0  0  0  0  0  0
   43.3725   15.1341   16.0264 C   0  0  0  0  0  0  0  0  0  0  0  0
   44.1180   16.2863   16.5311 C   0  0  0  0  0  0  0  0  0  0  0  0
   44.5838   17.0863   15.6940 O   0  0  0  0  0  0  0  0  0  0  0  0
   44.2445   16.4601   17.7618 O   0  0  0  0  0  0  0  0  0  0  0  0
   42.0449   11.4267   16.0548 C   0  0  0  0  0  0  0  0  0  0  0  0
   42.9251   10.5626   16.7473 C   0  0  0  0  0  0  0  0  0  0  0  0
   42.5838    9.2140   16.9714 C   0  0  0  0  0  0  0  0  0  0  0  0
   41.3651    8.7009   16.4896 C   0  0  0  0  0  0  0  0  0  0  0  0
   40.4761    9.5462   15.7956 C   0  0  0  0  0  0  0  0  0  0  0  0
   40.8219   10.8955   15.5966 C   0  0  0  0  0  0  0  0  0  0  0  0
   39.2700    9.0863   15.2592 N   0  0  0  0  0  0  0  0  0  0  0  0
   38.0450    8.1308   16.0194 S   0  0  0  0  0  0  0  0  0  0  0  0
   38.7129    7.2362   16.9757 O   0  0  0  0  0  0  0  0  0  0  0  0
   37.0125    9.0863   16.4569 O   0  0  0  0  0  0  0  0  0  0  0  0
   37.4319    7.1649   14.6463 C   0  0  0  0  0  0  0  0  0  0  0  0
   36.1838    7.4731   14.0719 C   0  0  0  0  0  0  0  0  0  0  0  0
   35.7084    6.7111   12.9882 C   0  0  0  0  0  0  0  0  0  0  0  0
   36.4864    5.6554   12.4740 C   0  0  0  0  0  0  0  0  0  0  0  0
   36.0343    4.9468   11.4122 F   0  0  0  0  0  0  0  0  0  0  0  0
   37.7406    5.3562   13.0440 C   0  0  0  0  0  0  0  0  0  0  0  0
   38.2160    6.1108   14.1358 C   0  0  0  0  0  0  0  0  0  0  0  0
   41.4302   17.4863   14.9486 H   0  0  0  0  0  0  0  0  0  0  0  0
   40.4298   16.1002   14.5440 H   0  0  0  0  0  0  0  0  0  0  0  0
   43.8767   10.9238   17.1090 H   0  0  0  0  0  0  0  0  0  0  0  0
   43.2668    8.5657   17.5000 H   0  0  0  0  0  0  0  0  0  0  0  0
   41.1332    7.6573   16.6417 H   0  0  0  0  0  0  0  0  0  0  0  0
   40.1244   11.5346   15.0853 H   0  0  0  0  0  0  0  0  0  0  0  0
   38.8664    9.7596   14.6184 H   0  0  0  0  0  0  0  0  0  0  0  0
   35.5927    8.2863   14.4602 H   0  0  0  0  0  0  0  0  0  0  0  0
   34.7495    6.9398   12.5495 H   0  0  0  0  0  0  0  0  0  0  0  0
   38.3382    4.5502   12.6435 H   0  0  0  0  0  0  0  0  0  0  0  0
   39.1776    5.8866   14.5757 H   0  0  0  0  0  0  0  0  0  0  0  0
  1  2  2  0
  2  3  1  0
  2  4  1  0
  4  5  1  0
  4 32  1  0
  4 33  1  0
  5  6  1  0
  6 11  2  0
  6  7  1  0
  7  8  1  0
  7  9  2  0
  9 10  1  0
  9 15  1  0
 10 11  1  0
 11 12  1  0
 12 13  2  0
 12 14  1  0
 15 20  1  0
 15 16  2  0
 16 17  1  0
 16 34  1  0
 17 18  2  0
 17 35  1  0
 18 19  1  0
 18 36  1  0
 19 20  2  0
 19 21  1  0
 20 37  1  0
 21 22  1  0
 21 38  1  0
 22 23  2  0
 22 24  2  0
 22 25  1  0
 25 31  1  0
 25 26  2  0
 26 27  1  0
 26 39  1  0
 27 28  2  0
 27 40  1  0
 28 29  1  0
 28 30  1  0
 30 31  2  0
 30 41  1  0
 31 42  1  0
M  CHG  2   3  -1  14  -1
M  END
>  <s_m_entry_id>  (1) 
455

>  <i_f3d_flags>  (1) 
0

>  <r_epik_Ionization_Penalty>  (1) 
  0.0488

>  <r_epik_State_Penalty>  (1) 
  0.0416

>  <i_epik_Tot_Q>  (1) 
-2

>  <s_m_job_name>  (1) 
glide-dock_SP_ptp1b_no_cons

>  <r_i_docking_score>  (1) 
-7.21828856669041

>  <r_i_glide_gscore>  (1) 
-7.25988856669041

>  <r_i_glide_emodel>  (1) 
-107.060486275225

>  <index_string>  (1) 
2:0:0

$$$$
