10:0:0
     RDKit          3D

 31 32  0  0  1  0  0  0  0  0999 V2000
   43.0380   13.4910   16.3460 C   0  0  0  0  0  0  0  0  0  0  0  0
   43.8100   14.9880   16.3060 S   0  0  0  0  0  0  0  0  0  0  0  0
   43.2030   15.4930   14.8270 C   0  0  0  0  0  0  0  0  0  0  0  0
   42.3800   14.4900   14.3210 C   0  0  0  0  0  0  0  0  0  0  0  0
   42.2670   13.3660   15.1770 C   0  0  0  0  0  0  0  0  0  0  0  0
   41.0360   11.9200   14.8700 Br  0  0  0  0  0  0  0  0  0  0  0  0
   43.1930   12.0050   19.8380 C   0  0  0  0  0  0  0  0  0  0  0  0
   43.4050   10.6550   19.5470 C   0  0  0  0  0  0  0  0  0  0  0  0
   43.5010   10.2270   18.2200 C   0  0  0  0  0  0  0  0  0  0  0  0
   43.3840   11.1680   17.1850 C   0  0  0  0  0  0  0  0  0  0  0  0
   43.1820   12.5280   17.4630 C   0  0  0  0  0  0  0  0  0  0  0  0
   43.0790   12.9330   18.8010 C   0  0  0  0  0  0  0  0  0  0  0  0
   43.7090    8.8700   17.9590 O   0  0  0  0  0  0  0  0  0  0  0  0
   44.4930    8.0380   18.8020 C   0  0  0  0  0  0  0  0  0  0  0  0
   43.5200   16.7800   14.1880 C   0  0  0  0  0  0  0  0  0  0  0  0
   43.7910   16.8240   12.9600 O   0  0  0  0  0  0  0  0  0  0  0  0
   43.5220   17.9560   14.9270 O   0  0  0  0  0  0  0  0  0  0  0  0
   41.7360   14.6420   13.0840 O   0  0  0  0  0  0  0  0  0  0  0  0
   40.3970   15.0900   12.9280 C   0  0  0  0  0  0  0  0  0  0  0  0
   40.3500   16.5790   12.9420 C   0  0  0  0  0  0  0  0  0  0  0  0
   40.0340   17.1890   13.9970 O   0  0  0  0  0  0  0  0  0  0  0  0
   40.6150   17.2930   11.7820 O   0  0  0  0  0  0  0  0  0  0  0  0
   43.1159   12.3367   20.8840 H   0  0  0  0  0  0  0  0  0  0  0  0
   43.4967    9.9260   20.3657 H   0  0  0  0  0  0  0  0  0  0  0  0
   43.4518   10.8336   16.1393 H   0  0  0  0  0  0  0  0  0  0  0  0
   42.9065   13.9935   19.0366 H   0  0  0  0  0  0  0  0  0  0  0  0
   44.2733    8.2712   19.8543 H   0  0  0  0  0  0  0  0  0  0  0  0
   44.2528    6.9833   18.6023 H   0  0  0  0  0  0  0  0  0  0  0  0
   45.5601    8.2152   18.6023 H   0  0  0  0  0  0  0  0  0  0  0  0
   39.9997   14.7225   11.9703 H   0  0  0  0  0  0  0  0  0  0  0  0
   39.7889   14.7029   13.7589 H   0  0  0  0  0  0  0  0  0  0  0  0
  1 11  1  0
  1  2  1  0
  1  5  2  0
  2  3  1  0
  3  4  2  0
  3 15  1  0
  4  5  1  0
  4 18  1  0
  5  6  1  0
  7  8  2  0
  7 12  1  0
  7 23  1  0
  8  9  1  0
  8 24  1  0
  9 10  2  0
  9 13  1  0
 10 11  1  0
 10 25  1  0
 11 12  2  0
 12 26  1  0
 13 14  1  0
 14 27  1  0
 14 28  1  0
 14 29  1  0
 15 17  1  0
 15 16  2  0
 18 19  1  0
 19 20  1  0
 19 30  1  0
 19 31  1  0
 20 21  1  0
 20 22  2  0
M  CHG  2  17  -1  21  -1
M  END
>  <s_m_entry_id>  (1) 
1356

>  <MODEL>  (1) 
1

>  <REMARK>  (1) 
 VINA RESULT:    -6.533      0.000      0.000
 INTER + INTRA:          -9.152
 INTER:                  -8.825
 INTRA:                  -0.327
 UNBOUND:                -0.327
  Name = /scratch/kmzp800/tmp7d75bt99/tmp9txxzzuh.pdb
  7 active torsions:
  status: ('A' for Active; 'I' for Inactive)
    1  A    between atoms: C3_3  and  O1_4
    2  A    between atoms: O1_4  and  C4_5
    3  A    between atoms: C6_7  and  C7_8
    4  A    between atoms: C8_10  and  C9_11
    5  A    between atoms: C10_14  and  O4_15
    6  A    between atoms: O4_15  and  C11_16
    7  A    between atoms: C11_16  and  C12_17
                            x       y       z     vdW  Elec       q    Type
                         _______ _______ _______ _____ _____    ______ ____

>  <TORSDO>  (1) 
F 6

>  <grid_id>  (1) 
ptp1b-prepared

>  <grid_path>  (1) 
ptp1b_vina.pdbqt

>  <grid_filename>  (1) 
ptp1b_vina.pdbqt

>  <docking_score>  (1) 
-6.533

>  <compound_name>  (1) 
lig_23467

>  <index_string>  (1) 
10:0:0

>  <s_m_Source_Path>  (1) 
/projects/mai/users/kmzp800_harry/pmx_colab/docking_jobs/ptp1b/vina_prep

>  <s_m_Source_File>  (1) 
ptp1b_vina_naive_confs.sdf

>  <i_m_Source_File_Index>  (1) 
11

$$$$
