5:0:0
     RDKit          3D

 50 52  0  0  1  0  0  0  0  0999 V2000
   39.7176   17.8864   12.8842 O   0  0  0  0  0  0  0  0  0  0  0  0
   40.8726   17.4049   12.8980 C   0  0  0  0  0  0  0  0  0  0  0  0
   41.6918   17.4862   11.9525 O   0  0  0  0  0  0  0  0  0  0  0  0
   41.3032   16.6901   14.1816 C   0  0  0  0  0  0  0  0  0  0  0  0
   42.4581   15.8880   13.9620 O   0  0  0  0  0  0  0  0  0  0  0  0
   42.6339   14.9183   14.8874 C   0  0  0  0  0  0  0  0  0  0  0  0
   42.0561   13.6269   14.8008 C   0  0  0  0  0  0  0  0  0  0  0  0
   40.9834   13.2066   13.2941 Br  0  0  0  0  0  0  0  0  0  0  0  0
   42.3543   12.7644   15.8312 C   0  0  0  0  0  0  0  0  0  0  0  0
   43.3838   13.5843   16.9815 S   0  0  0  0  0  0  0  0  0  0  0  0
   43.3838   15.0571   16.0241 C   0  0  0  0  0  0  0  0  0  0  0  0
   44.1405   16.2146   16.5196 C   0  0  0  0  0  0  0  0  0  0  0  0
   44.4911   17.0863   15.6941 O   0  0  0  0  0  0  0  0  0  0  0  0
   44.3931   16.3183   17.7386 O   0  0  0  0  0  0  0  0  0  0  0  0
   41.9442   11.3752   16.0758 C   0  0  0  0  0  0  0  0  0  0  0  0
   42.7914   10.4357   16.7073 C   0  0  0  0  0  0  0  0  0  0  0  0
   42.3721    9.0993   16.8940 C   0  0  0  0  0  0  0  0  0  0  0  0
   41.1147    8.6687   16.4196 C   0  0  0  0  0  0  0  0  0  0  0  0
   40.2561    9.5970   15.7954 C   0  0  0  0  0  0  0  0  0  0  0  0
   40.6718   10.9347   15.6643 C   0  0  0  0  0  0  0  0  0  0  0  0
   38.9834    9.2953   15.2948 N   0  0  0  0  0  0  0  0  0  0  0  0
   38.4890    7.9608   14.9764 C   0  0  0  0  0  0  0  0  0  0  0  0
   36.9712    8.0617   14.7494 C   0  0  0  0  0  0  0  0  0  0  0  0
   36.3423    6.7361   14.3008 C   0  0  0  0  0  0  0  0  0  0  0  0
   37.0134    6.2035   13.1016 N   0  0  0  0  0  0  0  0  0  0  0  0
   36.1290    5.0890   12.1004 S   0  0  0  0  0  0  0  0  0  0  0  0
   34.8089    5.6823   11.8313 O   0  0  0  0  0  0  0  0  0  0  0  0
   36.9837    4.6863   10.9750 O   0  0  0  0  0  0  0  0  0  0  0  0
   35.9079    3.6382   13.1978 C   0  0  0  0  0  0  0  0  0  0  0  0
   38.4795    6.0665   13.2434 C   0  0  0  0  0  0  0  0  0  0  0  0
   39.1299    7.3946   13.6954 C   0  0  0  0  0  0  0  0  0  0  0  0
   41.5183   17.4350   14.9489 H   0  0  0  0  0  0  0  0  0  0  0  0
   40.4653   16.0880   14.5389 H   0  0  0  0  0  0  0  0  0  0  0  0
   43.7736   10.7319   17.0455 H   0  0  0  0  0  0  0  0  0  0  0  0
   43.0304    8.3940   17.3797 H   0  0  0  0  0  0  0  0  0  0  0  0
   40.8199    7.6378   16.5486 H   0  0  0  0  0  0  0  0  0  0  0  0
   39.9912   11.6430   15.2244 H   0  0  0  0  0  0  0  0  0  0  0  0
   38.5508   10.0524   14.7666 H   0  0  0  0  0  0  0  0  0  0  0  0
   38.6819    7.2894   15.8136 H   0  0  0  0  0  0  0  0  0  0  0  0
   36.4839    8.3996   15.6644 H   0  0  0  0  0  0  0  0  0  0  0  0
   36.7619    8.8207   13.9931 H   0  0  0  0  0  0  0  0  0  0  0  0
   36.4057    5.9990   15.1020 H   0  0  0  0  0  0  0  0  0  0  0  0
   35.2829    6.8887   14.0934 H   0  0  0  0  0  0  0  0  0  0  0  0
   35.3673    2.8627   12.6557 H   0  0  0  0  0  0  0  0  0  0  0  0
   36.8838    3.2555   13.4940 H   0  0  0  0  0  0  0  0  0  0  0  0
   35.3384    3.9244   14.0805 H   0  0  0  0  0  0  0  0  0  0  0  0
   38.6961    5.2733   13.9602 H   0  0  0  0  0  0  0  0  0  0  0  0
   38.9147    5.7590   12.2922 H   0  0  0  0  0  0  0  0  0  0  0  0
   39.0338    8.1270   12.8939 H   0  0  0  0  0  0  0  0  0  0  0  0
   40.1999    7.2459   13.8449 H   0  0  0  0  0  0  0  0  0  0  0  0
  1  2  2  0
  2  3  1  0
  2  4  1  0
  4  5  1  0
  4 32  1  0
  4 33  1  0
  5  6  1  0
  6 11  2  0
  6  7  1  0
  7  8  1  0
  7  9  2  0
  9 10  1  0
  9 15  1  0
 10 11  1  0
 11 12  1  0
 12 13  2  0
 12 14  1  0
 15 20  1  0
 15 16  2  0
 16 17  1  0
 16 34  1  0
 17 18  2  0
 17 35  1  0
 18 19  1  0
 18 36  1  0
 19 20  2  0
 19 21  1  0
 20 37  1  0
 21 22  1  0
 21 38  1  0
 22 31  1  0
 22 23  1  0
 22 39  1  0
 23 24  1  0
 23 40  1  0
 23 41  1  0
 24 25  1  0
 24 42  1  0
 24 43  1  0
 25 26  1  0
 25 30  1  0
 26 27  2  0
 26 28  2  0
 26 29  1  0
 29 44  1  0
 29 45  1  0
 29 46  1  0
 30 31  1  0
 30 47  1  0
 30 48  1  0
 31 49  1  0
 31 50  1  0
M  CHG  2   3  -1  14  -1
M  END
>  <s_m_entry_id>  (1) 
458

>  <i_f3d_flags>  (1) 
0

>  <r_epik_Ionization_Penalty>  (1) 
  0.0005

>  <r_epik_State_Penalty>  (1) 
  0.0002

>  <i_epik_Tot_Q>  (1) 
-2

>  <s_m_job_name>  (1) 
glide-dock_SP_ptp1b_no_cons

>  <r_i_docking_score>  (1) 
-9.13792678649735

>  <r_i_glide_gscore>  (1) 
-9.13812678649735

>  <r_i_glide_emodel>  (1) 
-124.773693495116

>  <index_string>  (1) 
5:0:0

$$$$
