3:0:0
     RDKit          3D

 37 39  0  0  1  0  0  0  0  0999 V2000
  -14.6260  -14.4350  -27.4090 C   0  0  0  0  0  0  0  0  0  0  0  0
  -15.0990  -15.3720  -26.4760 C   0  0  0  0  0  0  0  0  0  0  0  0
  -14.9100  -13.0810  -27.2220 C   0  0  0  0  0  0  0  0  0  0  0  0
  -15.9120  -14.9470  -25.4170 C   0  0  0  0  0  0  0  0  0  0  0  0
  -14.7310  -16.7250  -26.5850 N   0  0  0  0  0  0  0  0  0  0  0  0
  -15.6780  -12.6640  -26.1350 C   0  0  0  0  0  0  0  0  0  0  0  0
  -16.1990  -13.5970  -25.2370 C   0  0  0  0  0  0  0  0  0  0  0  0
  -16.4650  -15.9890  -24.4750 C   0  0  0  0  0  0  0  0  0  0  0  0
  -15.9460  -17.2190  -24.7120 N   0  0  0  0  0  0  0  0  0  0  0  0
  -17.3130  -15.8020  -23.6090 O   0  0  0  0  0  0  0  0  0  0  0  0
  -15.1210  -17.6210  -25.7400 C   0  0  0  0  0  0  0  0  0  0  0  0
  -13.6670  -14.9020  -28.7720 Cl  0  0  0  0  0  0  0  0  0  0  0  0
  -14.7630  -19.0460  -25.8570 C   0  0  0  0  0  0  0  0  0  0  0  0
  -14.1630  -19.6860  -24.7660 C   0  0  0  0  0  0  0  0  0  0  0  0
  -13.8390  -21.0290  -24.8300 C   0  0  0  0  0  0  0  0  0  0  0  0
  -14.0990  -21.7640  -25.9870 C   0  0  0  0  0  0  0  0  0  0  0  0
  -14.6700  -21.1260  -27.0930 C   0  0  0  0  0  0  0  0  0  0  0  0
  -15.0020  -19.7790  -27.0280 C   0  0  0  0  0  0  0  0  0  0  0  0
  -13.9000  -23.2780  -25.9960 C   0  0  0  0  0  0  0  0  0  0  0  0
  -12.9790  -23.7760  -27.1200 C   0  0  0  0  0  0  0  0  0  0  0  0
  -15.2890  -23.9150  -25.9980 C   0  0  0  0  0  0  0  0  0  0  0  0
  -13.2490  -23.7760  -24.8560 O   0  0  0  0  0  0  0  0  0  0  0  0
  -14.5256  -12.3382  -27.9365 H   0  0  0  0  0  0  0  0  0  0  0  0
  -15.8745  -11.5922  -25.9843 H   0  0  0  0  0  0  0  0  0  0  0  0
  -16.8290  -13.2692  -24.3970 H   0  0  0  0  0  0  0  0  0  0  0  0
  -16.2025  -17.9502  -24.0334 H   0  0  0  0  0  0  0  0  0  0  0  0
  -13.9475  -19.1160  -23.8502 H   0  0  0  0  0  0  0  0  0  0  0  0
  -13.3734  -21.5208  -23.9632 H   0  0  0  0  0  0  0  0  0  0  0  0
  -14.8567  -21.6928  -28.0171 H   0  0  0  0  0  0  0  0  0  0  0  0
  -15.4549  -19.2846  -27.9000 H   0  0  0  0  0  0  0  0  0  0  0  0
  -12.0916  -24.2558  -26.6814 H   0  0  0  0  0  0  0  0  0  0  0  0
  -13.5201  -24.5044  -27.7417 H   0  0  0  0  0  0  0  0  0  0  0  0
  -12.6657  -22.9244  -27.7417 H   0  0  0  0  0  0  0  0  0  0  0  0
  -15.6235  -24.0684  -24.9614 H   0  0  0  0  0  0  0  0  0  0  0  0
  -15.9961  -23.2512  -26.5170 H   0  0  0  0  0  0  0  0  0  0  0  0
  -15.2473  -24.8840  -26.5170 H   0  0  0  0  0  0  0  0  0  0  0  0
  -13.6979  -23.4326  -24.0432 H   0  0  0  0  0  0  0  0  0  0  0  0
  1  3  2  0
  1  2  1  0
  1 12  1  0
  2  4  2  0
  2  5  1  0
  3  6  1  0
  4  7  1  0
  4  8  1  0
  5 11  2  0
  6  7  2  0
  8 10  2  0
  8  9  1  0
  9 11  1  0
 11 13  1  0
 13 14  2  0
 13 18  1  0
 14 15  1  0
 15 16  2  0
 16 17  1  0
 16 19  1  0
 17 18  2  0
 19 22  1  0
 19 20  1  0
 19 21  1  0
  3 23  1  0
  6 24  1  0
  7 25  1  0
  9 26  1  0
 14 27  1  0
 15 28  1  0
 17 29  1  0
 18 30  1  0
 20 31  1  0
 20 32  1  0
 20 33  1  0
 21 34  1  0
 21 35  1  0
 21 36  1  0
 22 37  1  0
M  END
>  <s_m_entry_id>  (1) 
2391

>  <MODEL>  (1) 
1

>  <REMARK>  (1) 
 VINA RESULT:   -10.996      0.000      0.000
 INTER + INTRA:         -13.047
 INTER:                 -12.605
 INTRA:                  -0.442
 UNBOUND:                -0.445
  Name = 5g
  5 active torsions:
  status: ('A' for Active; 'I' for Inactive)
    1  A    between atoms: C_11  and  C_12
    2  A    between atoms: C_15  and  C_18
    3  A    between atoms: C_18  and  O_19
    4  A    between atoms: C_18  and  C_20
    5  A    between atoms: C_18  and  C_21
                            x       y       z     vdW  Elec       q    Type
                         _______ _______ _______ _____ _____    ______ ____

>  <TORSDO>  (1) 
F 3

>  <s_m_Source_Path>  (1) 
/projects/mai/users/kmzp800_harry/pmx_colab/docking_jobs/tnks2/vina_prep/output_mcs

>  <s_m_Source_File>  (1) 
tnks_mcs_vina__all_poses.sdf

>  <i_m_Source_File_Index>  (1) 
9

>  <index_string>  (1) 
3:0:0

$$$$
