30:0:0
     RDKit          3D

 45 48  0  0  1  0  0  0  0  0999 V2000
   33.7532   35.1493   17.5964 Cl  0  0  0  0  0  0  0  0  0  0  0  0
   35.4290   35.5492   17.5104 C   0  0  0  0  0  0  0  0  0  0  0  0
   36.1102   35.3387   16.2932 C   0  0  0  0  0  0  0  0  0  0  0  0
   37.5000   35.5508   16.2151 C   0  0  0  0  0  0  0  0  0  0  0  0
   38.2108   35.9729   17.3530 C   0  0  0  0  0  0  0  0  0  0  0  0
   37.5258   36.2483   18.5550 C   0  0  0  0  0  0  0  0  0  0  0  0
   36.1300   36.0463   18.6351 C   0  0  0  0  0  0  0  0  0  0  0  0
   35.4351   36.4113   19.8834 C   0  0  0  0  0  0  0  0  0  0  0  0
   35.3519   37.7191   20.1839 C   0  0  0  0  0  0  0  0  0  0  0  0
   34.9257   35.4004   20.8239 C   0  0  0  0  0  0  0  0  0  0  0  0
   34.9507   34.1997   20.5387 O   0  0  0  0  0  0  0  0  0  0  0  0
   34.4302   35.8512   22.0212 N   0  0  0  0  0  0  0  0  0  0  0  0
   33.9521   34.8706   23.0097 C   0  0  0  0  0  0  0  0  0  0  0  0
   34.3093   37.2435   22.3633 C   0  0  0  0  0  0  0  0  0  0  0  0
   34.7708   38.1891   21.4286 C   0  0  0  0  0  0  0  0  0  0  0  0
   33.7758   37.6770   23.5341 N   0  0  0  0  0  0  0  0  0  0  0  0
   33.7240   38.9925   23.7596 C   0  0  0  0  0  0  0  0  0  0  0  0
   34.1520   39.9493   22.9433 N   0  0  0  0  0  0  0  0  0  0  0  0
   34.6518   39.5489   21.7620 C   0  0  0  0  0  0  0  0  0  0  0  0
   33.1646   39.4576   24.9313 N   0  0  0  0  0  0  0  0  0  0  0  0
   32.6166   38.6375   26.0062 C   0  0  0  0  0  0  0  0  0  0  0  0
   32.4223   39.4826   27.2747 C   0  0  0  0  0  0  0  0  0  0  0  0
   31.7888   38.6414   28.3948 C   0  0  0  0  0  0  0  0  0  0  0  0
   30.5558   38.0840   27.9513 O   0  0  0  0  0  0  0  0  0  0  0  0
   30.7144   37.2059   26.8425 C   0  0  0  0  0  0  0  0  0  0  0  0
   31.2665   37.9907   25.6388 C   0  0  0  0  0  0  0  0  0  0  0  0
   35.5690   34.9838   15.4268 H   0  0  0  0  0  0  0  0  0  0  0  0
   38.0235   35.3701   15.2880 H   0  0  0  0  0  0  0  0  0  0  0  0
   39.2800   36.1296   17.2968 H   0  0  0  0  0  0  0  0  0  0  0  0
   38.0764   36.6188   19.4085 H   0  0  0  0  0  0  0  0  0  0  0  0
   35.7387   38.4526   19.4902 H   0  0  0  0  0  0  0  0  0  0  0  0
   34.1960   35.1794   24.0272 H   0  0  0  0  0  0  0  0  0  0  0  0
   32.8674   34.7755   22.9456 H   0  0  0  0  0  0  0  0  0  0  0  0
   34.3828   33.8745   22.8933 H   0  0  0  0  0  0  0  0  0  0  0  0
   34.9547   40.3301   21.0884 H   0  0  0  0  0  0  0  0  0  0  0  0
   33.2418   40.4543   25.0972 H   0  0  0  0  0  0  0  0  0  0  0  0
   33.3367   37.8460   26.2239 H   0  0  0  0  0  0  0  0  0  0  0  0
   33.3754   39.8910   27.6104 H   0  0  0  0  0  0  0  0  0  0  0  0
   31.7808   40.3379   27.0600 H   0  0  0  0  0  0  0  0  0  0  0  0
   32.4658   37.8473   28.7141 H   0  0  0  0  0  0  0  0  0  0  0  0
   31.5970   39.2613   29.2699 H   0  0  0  0  0  0  0  0  0  0  0  0
   31.3845   36.3863   27.1065 H   0  0  0  0  0  0  0  0  0  0  0  0
   29.7525   36.7493   26.6083 H   0  0  0  0  0  0  0  0  0  0  0  0
   30.5485   38.7565   25.3415 H   0  0  0  0  0  0  0  0  0  0  0  0
   31.3793   37.3215   24.7857 H   0  0  0  0  0  0  0  0  0  0  0  0
  1  2  1  0
  2  7  2  0
  2  3  1  0
  3  4  2  0
  3 27  1  0
  4  5  1  0
  4 28  1  0
  5  6  2  0
  5 29  1  0
  6  7  1  0
  6 30  1  0
  7  8  1  0
  8  9  2  0
  8 10  1  0
  9 15  1  0
  9 31  1  0
 10 11  2  0
 10 12  1  0
 12 13  1  0
 12 14  1  0
 13 32  1  0
 13 33  1  0
 13 34  1  0
 14 15  2  0
 14 16  1  0
 15 19  1  0
 16 17  2  0
 17 18  1  0
 17 20  1  0
 18 19  2  0
 19 35  1  0
 20 21  1  0
 20 36  1  0
 21 26  1  0
 21 22  1  0
 21 37  1  0
 22 23  1  0
 22 38  1  0
 22 39  1  0
 23 24  1  0
 23 40  1  0
 23 41  1  0
 24 25  1  0
 25 26  1  0
 25 42  1  0
 25 43  1  0
 26 44  1  0
 26 45  1  0
M  END
>  <s_m_entry_id>  (1) 
746

>  <i_f3d_flags>  (1) 
0

>  <r_lp_tautomer_probability>  (1) 
1

>  <r_epik_Ionization_Penalty>  (1) 
  0.0000

>  <r_epik_State_Penalty>  (1) 
  0.0000

>  <i_epik_Tot_Q>  (1) 
0

>  <s_m_job_name>  (1) 
glide-dock_SP_p38_all_ligs_no_cons_10_poses

>  <r_i_docking_score>  (1) 
-7.79511626972204

>  <r_i_glide_gscore>  (1) 
-7.79511626972204

>  <r_i_glide_emodel>  (1) 
-65.3199964443637

>  <index_string>  (1) 
30:0:0

$$$$
