6:0:0
     RDKit          3D

 48 50  0  0  1  0  0  0  0  0999 V2000
   39.2051   17.4863   12.6794 O   0  0  0  0  0  0  0  0  0  0  0  0
   40.4178   17.1805   12.7593 C   0  0  0  0  0  0  0  0  0  0  0  0
   41.2809   17.4864   11.8995 O   0  0  0  0  0  0  0  0  0  0  0  0
   40.8676   16.3883   13.9947 C   0  0  0  0  0  0  0  0  0  0  0  0
   42.1351   15.7741   13.7748 O   0  0  0  0  0  0  0  0  0  0  0  0
   42.5332   14.9463   14.7690 C   0  0  0  0  0  0  0  0  0  0  0  0
   42.1527   13.5895   14.8939 C   0  0  0  0  0  0  0  0  0  0  0  0
   40.9837   12.8174   13.6421 Br  0  0  0  0  0  0  0  0  0  0  0  0
   42.6136   12.9271   15.9961 C   0  0  0  0  0  0  0  0  0  0  0  0
   43.6328   13.9806   16.9211 S   0  0  0  0  0  0  0  0  0  0  0  0
   43.3597   15.2990   15.7982 C   0  0  0  0  0  0  0  0  0  0  0  0
   43.9984   16.5619   16.1169 C   0  0  0  0  0  0  0  0  0  0  0  0
   44.5840   16.6861   17.2107 O   0  0  0  0  0  0  0  0  0  0  0  0
   43.9452   17.4946   15.2940 O   0  0  0  0  0  0  0  0  0  0  0  0
   42.3564   11.5725   16.4618 C   0  0  0  0  0  0  0  0  0  0  0  0
   43.4005   10.7900   16.9907 C   0  0  0  0  0  0  0  0  0  0  0  0
   43.1556    9.4894   17.4629 C   0  0  0  0  0  0  0  0  0  0  0  0
   41.8585    8.9548   17.3884 C   0  0  0  0  0  0  0  0  0  0  0  0
   40.8024    9.7110   16.8386 C   0  0  0  0  0  0  0  0  0  0  0  0
   41.0610   11.0161   16.3846 C   0  0  0  0  0  0  0  0  0  0  0  0
   39.4893    9.2342   16.7357 N   0  0  0  0  0  0  0  0  0  0  0  0
   39.1276    7.8355   16.9509 C   0  0  0  0  0  0  0  0  0  0  0  0
   37.5972    7.6558   16.8765 C   0  0  0  0  0  0  0  0  0  0  0  0
   36.9370    8.0991   15.5554 C   0  0  0  0  0  0  0  0  0  0  0  0
   37.4884    7.4262   14.2842 C   0  0  0  0  0  0  0  0  0  0  0  0
   38.8789    7.9418   13.8797 C   0  0  0  0  0  0  0  0  0  0  0  0
   40.0611    7.2357   14.5644 C   0  0  0  0  0  0  0  0  0  0  0  0
   39.8614    6.8236   16.0332 C   0  0  0  0  0  0  0  0  0  0  0  0
   40.9052   17.0572   14.8565 H   0  0  0  0  0  0  0  0  0  0  0  0
   40.1161   15.6336   14.2189 H   0  0  0  0  0  0  0  0  0  0  0  0
   44.3996   11.1942   17.0430 H   0  0  0  0  0  0  0  0  0  0  0  0
   43.9586    8.9059   17.8876 H   0  0  0  0  0  0  0  0  0  0  0  0
   41.6992    7.9723   17.8013 H   0  0  0  0  0  0  0  0  0  0  0  0
   40.2435   11.6002   15.9860 H   0  0  0  0  0  0  0  0  0  0  0  0
   38.8588    9.7629   16.1514 H   0  0  0  0  0  0  0  0  0  0  0  0
   39.4066    7.6012   17.9794 H   0  0  0  0  0  0  0  0  0  0  0  0
   37.3471    6.6113   17.0694 H   0  0  0  0  0  0  0  0  0  0  0  0
   37.1395    8.2143   17.6941 H   0  0  0  0  0  0  0  0  0  0  0  0
   35.8710    7.8800   15.6220 H   0  0  0  0  0  0  0  0  0  0  0  0
   37.0054    9.1822   15.4507 H   0  0  0  0  0  0  0  0  0  0  0  0
   37.4891    6.3398   14.3830 H   0  0  0  0  0  0  0  0  0  0  0  0
   36.8020    7.6514   13.4679 H   0  0  0  0  0  0  0  0  0  0  0  0
   39.0093    7.8260   12.8057 H   0  0  0  0  0  0  0  0  0  0  0  0
   38.9361    9.0171   14.0549 H   0  0  0  0  0  0  0  0  0  0  0  0
   40.3242    6.3404   14.0005 H   0  0  0  0  0  0  0  0  0  0  0  0
   40.9349    7.8843   14.4950 H   0  0  0  0  0  0  0  0  0  0  0  0
   40.8424    6.5859   16.4355 H   0  0  0  0  0  0  0  0  0  0  0  0
   39.3416    5.8661   16.0743 H   0  0  0  0  0  0  0  0  0  0  0  0
  1  2  2  0
  2  3  1  0
  2  4  1  0
  4  5  1  0
  4 29  1  0
  4 30  1  0
  5  6  1  0
  6 11  2  0
  6  7  1  0
  7  8  1  0
  7  9  2  0
  9 10  1  0
  9 15  1  0
 10 11  1  0
 11 12  1  0
 12 13  2  0
 12 14  1  0
 15 20  1  0
 15 16  2  0
 16 17  1  0
 16 31  1  0
 17 18  2  0
 17 32  1  0
 18 19  1  0
 18 33  1  0
 19 20  2  0
 19 21  1  0
 20 34  1  0
 21 22  1  0
 21 35  1  0
 22 28  1  0
 22 23  1  0
 22 36  1  0
 23 24  1  0
 23 37  1  0
 23 38  1  0
 24 25  1  0
 24 39  1  0
 24 40  1  0
 25 26  1  0
 25 41  1  0
 25 42  1  0
 26 27  1  0
 26 43  1  0
 26 44  1  0
 27 28  1  0
 27 45  1  0
 27 46  1  0
 28 47  1  0
 28 48  1  0
M  CHG  2   3  -1  14  -1
M  END
>  <s_m_entry_id>  (1) 
481

>  <i_f3d_flags>  (1) 
0

>  <r_epik_Ionization_Penalty>  (1) 
  0.0036

>  <r_epik_State_Penalty>  (1) 
  0.0025

>  <i_epik_Tot_Q>  (1) 
-2

>  <s_m_job_name>  (1) 
glide-dock_SP_ptp1b_core_cons

>  <r_i_docking_score>  (1) 
-7.15108381248547

>  <r_i_glide_gscore>  (1) 
-7.15358381248547

>  <r_i_glide_emodel>  (1) 
-91.9708926096857

>  <index_string>  (1) 
6:0:0

$$$$
