4:0:0
     RDKit          3D

 43 47  0  0  1  0  0  0  0  0999 V2000
   -2.2073    1.1217   12.5770 C   0  0  0  0  0  0  0  0  0  0  0  0
   -2.7705   -0.0175   13.2389 O   0  0  0  0  0  0  0  0  0  0  0  0
   -1.9351   -0.8595   13.9495 C   0  0  0  0  0  0  0  0  0  0  0  0
   -2.5008   -2.0577   14.4283 C   0  0  0  0  0  0  0  0  0  0  0  0
   -1.7266   -2.9697   15.1677 C   0  0  0  0  0  0  0  0  0  0  0  0
   -0.3806   -2.6885   15.4495 C   0  0  0  0  0  0  0  0  0  0  0  0
    0.2146   -1.5006   14.9686 C   0  0  0  0  0  0  0  0  0  0  0  0
    1.5681   -1.2940   15.2742 N   0  0  0  0  0  0  0  0  0  0  0  0
    2.5275   -0.4303   14.7283 C   0  0  0  0  0  0  0  0  0  0  0  0
    2.1974    0.3667   13.7535 N   0  0  0  0  0  0  0  0  0  0  0  0
    3.1269    1.2267   13.2157 C   0  0  0  0  0  0  0  0  0  0  0  0
    4.4302    1.2709   13.6601 C   0  0  0  0  0  0  0  0  0  0  0  0
    4.7619    0.4797   14.7141 N   0  0  0  0  0  0  0  0  0  0  0  0
    5.9090    0.3607   15.4695 C   0  0  0  0  0  0  0  0  0  0  0  0
    5.6028   -0.4968   16.4902 C   0  0  0  0  0  0  0  0  0  0  0  0
    4.3462   -1.0437   16.3411 N   0  0  0  0  0  0  0  0  0  0  0  0
    3.8257   -0.4148   15.2966 C   0  0  0  0  0  0  0  0  0  0  0  0
    2.6318    2.2041   12.2121 C   0  0  0  0  0  0  0  0  0  0  0  0
    3.4971    2.7073   11.2066 C   0  0  0  0  0  0  0  0  0  0  0  0
    3.0524    3.6056   10.2143 C   0  0  0  0  0  0  0  0  0  0  0  0
    1.7189    4.0638   10.2144 C   0  0  0  0  0  0  0  0  0  0  0  0
    0.9066    4.9469    9.4259 C   0  0  0  0  0  0  0  0  0  0  0  0
   -0.3264    5.0243    9.8687 N   0  0  0  0  0  0  0  0  0  0  0  0
   -0.3562    4.2135   10.9542 N   0  0  0  0  0  0  0  0  0  0  0  0
    0.8608    3.5976   11.2321 C   0  0  0  0  0  0  0  0  0  0  0  0
    1.2941    2.6752   12.2099 C   0  0  0  0  0  0  0  0  0  0  0  0
   -0.5710   -0.5919   14.2173 C   0  0  0  0  0  0  0  0  0  0  0  0
   -2.9889    1.6664   12.0135 H   0  0  0  0  0  0  0  0  0  0  0  0
   -1.7767    1.7891   13.3212 H   0  0  0  0  0  0  0  0  0  0  0  0
   -1.4223    0.8283   11.8532 H   0  0  0  0  0  0  0  0  0  0  0  0
   -3.5430   -2.2843   14.2230 H   0  0  0  0  0  0  0  0  0  0  0  0
   -2.1814   -3.8678   15.5558 H   0  0  0  0  0  0  0  0  0  0  0  0
    0.1963   -3.3917   16.0325 H   0  0  0  0  0  0  0  0  0  0  0  0
    1.9517   -1.9287   15.9568 H   0  0  0  0  0  0  0  0  0  0  0  0
    5.1816    1.9521   13.2716 H   0  0  0  0  0  0  0  0  0  0  0  0
    6.7894    0.9414   15.2530 H   0  0  0  0  0  0  0  0  0  0  0  0
    6.1401   -0.7566   17.3769 H   0  0  0  0  0  0  0  0  0  0  0  0
    4.5238    2.3908   11.1577 H   0  0  0  0  0  0  0  0  0  0  0  0
    3.7396    3.9415    9.4423 H   0  0  0  0  0  0  0  0  0  0  0  0
    1.1846    5.5618    8.5718 H   0  0  0  0  0  0  0  0  0  0  0  0
   -1.2203    4.0920   11.4752 H   0  0  0  0  0  0  0  0  0  0  0  0
    0.6074    2.3304   12.9744 H   0  0  0  0  0  0  0  0  0  0  0  0
   -0.1465    0.3353   13.8794 H   0  0  0  0  0  0  0  0  0  0  0  0
  1  2  1  0
  1 28  1  0
  1 29  1  0
  1 30  1  0
  2  3  1  0
  3  4  2  0
  3 27  1  0
  4  5  1  0
  4 31  1  0
  5  6  2  0
  5 32  1  0
  6  7  1  0
  6 33  1  0
  7  8  1  0
  7 27  2  0
  8  9  1  0
  8 34  1  0
  9 10  2  0
  9 17  1  0
 10 11  1  0
 11 12  2  0
 11 18  1  0
 12 13  1  0
 12 35  1  0
 13 14  1  0
 13 17  1  0
 14 15  2  0
 14 36  1  0
 15 16  1  0
 15 37  1  0
 16 17  2  0
 18 19  2  0
 18 26  1  0
 19 20  1  0
 19 38  1  0
 20 21  2  0
 20 39  1  0
 21 22  1  0
 21 25  1  0
 22 23  2  0
 22 40  1  0
 23 24  1  0
 24 25  1  0
 24 41  1  0
 25 26  2  0
 26 42  1  0
 27 43  1  0
M  END
>  <s_m_entry_id>  (1) 
992

>  <IC50[nM]>  (1) 
8.5

>  <s_m_Source_Path>  (1) 
/projects/mai/users/kmzp800_harry/pmx_colab/docking_jobs/syk

>  <s_m_Source_File>  (1) 
tnks2_lig.sdf

>  <i_m_Source_File_Index>  (1) 
5

>  <s_m_job_name>  (1) 
glide-dock_SP_tnks2_core_const

>  <r_i_docking_score>  (1) 
-7.07994482473655

>  <r_i_glide_gscore>  (1) 
-7.07994482473655

>  <r_i_glide_emodel>  (1) 
-44.4259785960522

>  <index_string>  (1) 
4:0:0

$$$$
