7:0:0
     RDKit          3D

 49 51  0  0  1  0  0  0  0  0999 V2000
   42.1930    9.0890   16.9800 C   0  0  0  0  0  0  0  0  0  0  0  0
   42.6340   10.4090   16.8440 C   0  0  0  0  0  0  0  0  0  0  0  0
   41.9630   11.3020   15.9970 C   0  0  0  0  0  0  0  0  0  0  0  0
   40.8340   10.8490   15.3030 C   0  0  0  0  0  0  0  0  0  0  0  0
   40.3820    9.5270   15.4330 C   0  0  0  0  0  0  0  0  0  0  0  0
   41.0700    8.6500   16.2730 C   0  0  0  0  0  0  0  0  0  0  0  0
   42.3900   12.7130   15.8410 C   0  0  0  0  0  0  0  0  0  0  0  0
   43.3770   13.5070   16.9540 S   0  0  0  0  0  0  0  0  0  0  0  0
   43.4210   14.9880   16.1730 C   0  0  0  0  0  0  0  0  0  0  0  0
   42.6660   14.8970   15.0060 C   0  0  0  0  0  0  0  0  0  0  0  0
   42.0670   13.6240   14.8190 C   0  0  0  0  0  0  0  0  0  0  0  0
   40.8020   13.2460   13.4200 Br  0  0  0  0  0  0  0  0  0  0  0  0
   44.1570   16.1670   16.6570 C   0  0  0  0  0  0  0  0  0  0  0  0
   44.8880   16.8200   15.8670 O   0  0  0  0  0  0  0  0  0  0  0  0
   44.0540   16.5730   17.9810 O   0  0  0  0  0  0  0  0  0  0  0  0
   42.5320   15.9950   14.1450 O   0  0  0  0  0  0  0  0  0  0  0  0
   41.5630   17.0230   14.3020 C   0  0  0  0  0  0  0  0  0  0  0  0
   40.6520   17.0540   13.1240 C   0  0  0  0  0  0  0  0  0  0  0  0
   39.4110   16.9280   13.2860 O   0  0  0  0  0  0  0  0  0  0  0  0
   41.1660   17.2660   11.8520 O   0  0  0  0  0  0  0  0  0  0  0  0
   39.2270    9.0630   14.7200 N   0  0  0  0  0  0  0  0  0  0  0  0
   38.7060    7.6980   14.7680 C   0  0  0  0  0  0  0  0  0  0  0  0
   37.2440    7.7010   15.2350 C   0  0  0  0  0  0  0  0  0  0  0  0
   36.6710    6.2880   15.2200 C   0  0  0  0  0  0  0  0  0  0  0  0
   36.8860    5.6980   13.9030 N   0  0  0  0  0  0  0  0  0  0  0  0
   35.7770    5.4100   13.0390 C   0  0  0  0  0  0  0  0  0  0  0  0
   34.5960    5.5730   13.4470 O   0  0  0  0  0  0  0  0  0  0  0  0
   35.9950    4.9170   11.6490 C   0  0  0  0  0  0  0  0  0  0  0  0
   38.2620    5.6140   13.4260 C   0  0  0  0  0  0  0  0  0  0  0  0
   38.8710    7.0130   13.4050 C   0  0  0  0  0  0  0  0  0  0  0  0
   42.7302    8.3957   17.6438 H   0  0  0  0  0  0  0  0  0  0  0  0
   43.5155   10.7498   17.4068 H   0  0  0  0  0  0  0  0  0  0  0  0
   40.2915   11.5425   14.6437 H   0  0  0  0  0  0  0  0  0  0  0  0
   40.7274    7.6101   16.3790 H   0  0  0  0  0  0  0  0  0  0  0  0
   40.9747   16.8322   15.2116 H   0  0  0  0  0  0  0  0  0  0  0  0
   42.0771   17.9920   14.3843 H   0  0  0  0  0  0  0  0  0  0  0  0
   38.7270    9.7430   14.1296 H   0  0  0  0  0  0  0  0  0  0  0  0
   39.2860    7.1172   15.5003 H   0  0  0  0  0  0  0  0  0  0  0  0
   37.1926    8.1007   16.2585 H   0  0  0  0  0  0  0  0  0  0  0  0
   36.6551    8.3289   14.5503 H   0  0  0  0  0  0  0  0  0  0  0  0
   37.1759    5.6779   15.9835 H   0  0  0  0  0  0  0  0  0  0  0  0
   35.5934    6.3235   15.4380 H   0  0  0  0  0  0  0  0  0  0  0  0
   36.4397    3.9114   11.6821 H   0  0  0  0  0  0  0  0  0  0  0  0
   35.0317    4.8747   11.1196 H   0  0  0  0  0  0  0  0  0  0  0  0
   36.6745    5.6011   11.1196 H   0  0  0  0  0  0  0  0  0  0  0  0
   38.8459    4.9684   14.0985 H   0  0  0  0  0  0  0  0  0  0  0  0
   38.2766    5.1889   12.4116 H   0  0  0  0  0  0  0  0  0  0  0  0
   38.3660    7.6149   12.6351 H   0  0  0  0  0  0  0  0  0  0  0  0
   39.9444    6.9276   13.1803 H   0  0  0  0  0  0  0  0  0  0  0  0
  1  2  2  0
  1  6  1  0
  1 31  1  0
  2  3  1  0
  2 32  1  0
  3  4  2  0
  3  7  1  0
  4  5  1  0
  4 33  1  0
  5  6  2  0
  5 21  1  0
  6 34  1  0
  7  8  1  0
  7 11  2  0
  8  9  1  0
  9 13  1  0
  9 10  2  0
 10 11  1  0
 10 16  1  0
 11 12  1  0
 13 15  1  0
 13 14  2  0
 16 17  1  0
 17 18  1  0
 17 35  1  0
 17 36  1  0
 18 19  1  0
 18 20  2  0
 21 22  1  0
 21 37  1  0
 22 23  1  0
 22 30  1  0
 22 38  1  0
 23 24  1  0
 23 39  1  0
 23 40  1  0
 24 25  1  0
 24 41  1  0
 24 42  1  0
 25 26  1  0
 25 29  1  0
 26 27  2  0
 26 28  1  0
 28 43  1  0
 28 44  1  0
 28 45  1  0
 29 30  1  0
 29 46  1  0
 29 47  1  0
 30 48  1  0
 30 49  1  0
M  CHG  2  15  -1  19  -1
M  END
>  <s_m_entry_id>  (1) 
1224

>  <MODEL>  (1) 
1

>  <REMARK>  (1) 
 VINA RESULT:    -7.737      0.000      0.000
 INTER + INTRA:         -11.683
 INTER:                 -11.394
 INTRA:                  -0.289
 UNBOUND:                -0.779
  Name = /scratch/kmzp800/tmpwujn0qa0/tmp3zq7w6od.pdb
  8 active torsions:
  status: ('A' for Active; 'I' for Inactive)
    1  A    between atoms: C3_3  and  C4_4
    2  A    between atoms: C5_6  and  C6_7
    3  A    between atoms: C7_10  and  O3_11
    4  A    between atoms: O3_11  and  C8_12
    5  A    between atoms: C8_12  and  C9_13
    6  A    between atoms: C12_19  and  N1_20
    7  A    between atoms: N1_20  and  C13_21
    8  A    between atoms: C16_25  and  C17_27
                            x       y       z     vdW  Elec       q    Type
                         _______ _______ _______ _____ _____    ______ ____

>  <TORSDO>  (1) 
F 7

>  <grid_id>  (1) 
ptp1b-prepared

>  <grid_path>  (1) 
ptp1b_vina.pdbqt

>  <grid_filename>  (1) 
ptp1b_vina.pdbqt

>  <docking_score>  (1) 
-7.737

>  <compound_name>  (1) 
lig_23479

>  <index_string>  (1) 
7:0:0

>  <s_m_Source_Path>  (1) 
/projects/mai/users/kmzp800_harry/pmx_colab/docking_jobs/ptp1b

>  <s_m_Source_File>  (1) 
ptp1b_confs_vina_mcs.sdf

>  <i_m_Source_File_Index>  (1) 
8

$$$$
