39:0:0
     RDKit          3D

 65 70  0  0  1  0  0  0  0  0999 V2000
   -4.5735   -3.0616   15.6235 C   0  0  0  0  0  0  0  0  0  0  0  0
   -3.8995   -2.2378   14.6780 O   0  0  0  0  0  0  0  0  0  0  0  0
   -2.5424   -2.0588   14.8283 C   0  0  0  0  0  0  0  0  0  0  0  0
   -1.7461   -2.8235   15.7135 C   0  0  0  0  0  0  0  0  0  0  0  0
   -0.3700   -2.5781   15.8177 C   0  0  0  0  0  0  0  0  0  0  0  0
    0.2415   -1.5579   15.0680 C   0  0  0  0  0  0  0  0  0  0  0  0
    1.6082   -1.3320   15.2949 N   0  0  0  0  0  0  0  0  0  0  0  0
    2.5252   -0.4285   14.7286 C   0  0  0  0  0  0  0  0  0  0  0  0
    2.1985    0.3684   13.7462 N   0  0  0  0  0  0  0  0  0  0  0  0
    3.1304    1.2455   13.2239 C   0  0  0  0  0  0  0  0  0  0  0  0
    4.4313    1.2826   13.6672 C   0  0  0  0  0  0  0  0  0  0  0  0
    4.7642    0.4818   14.7148 N   0  0  0  0  0  0  0  0  0  0  0  0
    5.9094    0.3837   15.4845 C   0  0  0  0  0  0  0  0  0  0  0  0
    5.6082   -0.4982   16.4892 C   0  0  0  0  0  0  0  0  0  0  0  0
    4.3643   -1.0624   16.3175 N   0  0  0  0  0  0  0  0  0  0  0  0
    3.8294   -0.4118   15.2890 C   0  0  0  0  0  0  0  0  0  0  0  0
    2.6555    2.1658   12.1572 C   0  0  0  0  0  0  0  0  0  0  0  0
    3.5615    2.6776   11.1896 C   0  0  0  0  0  0  0  0  0  0  0  0
    3.1467    3.5027   10.1347 C   0  0  0  0  0  0  0  0  0  0  0  0
    1.7948    3.8573   10.0434 C   0  0  0  0  0  0  0  0  0  0  0  0
    0.8739    3.3943   11.0163 C   0  0  0  0  0  0  0  0  0  0  0  0
    1.2983    2.5492   12.0664 C   0  0  0  0  0  0  0  0  0  0  0  0
   -0.5647    3.7662   10.8840 C   0  0  0  0  0  0  0  0  0  0  0  0
   -1.1036    3.7157    9.7782 O   0  0  0  0  0  0  0  0  0  0  0  0
   -1.1545    4.1859   12.0231 N   0  0  0  0  0  0  0  0  0  0  0  0
   -2.4711    4.6931   12.1809 C   0  0  0  0  0  0  0  0  0  0  0  0
   -2.7425    5.5829   13.2435 C   0  0  0  0  0  0  0  0  0  0  0  0
   -4.0410    6.1031   13.4223 C   0  0  0  0  0  0  0  0  0  0  0  0
   -5.0775    5.7502   12.5355 C   0  0  0  0  0  0  0  0  0  0  0  0
   -4.8088    4.8419   11.4909 C   0  0  0  0  0  0  0  0  0  0  0  0
   -3.5198    4.3166   11.3108 C   0  0  0  0  0  0  0  0  0  0  0  0
   -6.4261    6.2796   12.7337 C   0  0  0  0  0  0  0  0  0  0  0  0
   -6.7087    7.3897   13.4175 N   0  0  0  0  0  0  0  0  0  0  0  0
   -8.1001    7.5145   13.3817 C   0  0  0  0  0  0  0  0  0  0  0  0
   -8.6386    6.4883   12.6432 C   0  0  0  0  0  0  0  0  0  0  0  0
   -7.5508    5.7223   12.2546 N   0  0  0  0  0  0  0  0  0  0  0  0
   -0.5467   -0.8141   14.1682 C   0  0  0  0  0  0  0  0  0  0  0  0
   -1.9330   -1.0542   14.0440 C   0  0  0  0  0  0  0  0  0  0  0  0
   -2.7411   -0.3207   13.1983 O   0  0  0  0  0  0  0  0  0  0  0  0
   -2.1591    0.6841   12.3742 C   0  0  0  0  0  0  0  0  0  0  0  0
   -5.6367   -3.0462   15.3889 H   0  0  0  0  0  0  0  0  0  0  0  0
   -4.2344   -4.1008   15.5835 H   0  0  0  0  0  0  0  0  0  0  0  0
   -4.4518   -2.6810   16.6397 H   0  0  0  0  0  0  0  0  0  0  0  0
   -2.1656   -3.6022   16.3298 H   0  0  0  0  0  0  0  0  0  0  0  0
    0.2145   -3.1841   16.4921 H   0  0  0  0  0  0  0  0  0  0  0  0
    2.0154   -1.8732   16.0502 H   0  0  0  0  0  0  0  0  0  0  0  0
    5.1957    1.9528   13.2919 H   0  0  0  0  0  0  0  0  0  0  0  0
    6.7704    0.9975   15.2710 H   0  0  0  0  0  0  0  0  0  0  0  0
    6.1389   -0.7846   17.3655 H   0  0  0  0  0  0  0  0  0  0  0  0
    4.6091    2.4254   11.2335 H   0  0  0  0  0  0  0  0  0  0  0  0
    3.8628    3.8562    9.4020 H   0  0  0  0  0  0  0  0  0  0  0  0
    1.4730    4.4910    9.2309 H   0  0  0  0  0  0  0  0  0  0  0  0
    0.5876    2.1767   12.7931 H   0  0  0  0  0  0  0  0  0  0  0  0
   -0.5513    4.2783   12.8311 H   0  0  0  0  0  0  0  0  0  0  0  0
   -1.9633    5.8803   13.9356 H   0  0  0  0  0  0  0  0  0  0  0  0
   -4.2480    6.7687   14.2503 H   0  0  0  0  0  0  0  0  0  0  0  0
   -5.5909    4.5302   10.8188 H   0  0  0  0  0  0  0  0  0  0  0  0
   -3.3538    3.6268   10.4950 H   0  0  0  0  0  0  0  0  0  0  0  0
   -8.5976    8.3376   13.8804 H   0  0  0  0  0  0  0  0  0  0  0  0
   -9.6618    6.2565   12.3781 H   0  0  0  0  0  0  0  0  0  0  0  0
   -7.5783    4.8907   11.6848 H   0  0  0  0  0  0  0  0  0  0  0  0
   -0.1036   -0.0434   13.5727 H   0  0  0  0  0  0  0  0  0  0  0  0
   -2.9381    1.1515   11.7701 H   0  0  0  0  0  0  0  0  0  0  0  0
   -1.6925    1.4716   12.9650 H   0  0  0  0  0  0  0  0  0  0  0  0
   -1.4176    0.2677   11.6886 H   0  0  0  0  0  0  0  0  0  0  0  0
  1  2  1  0
  1 41  1  0
  1 42  1  0
  1 43  1  0
  2  3  1  0
  3  4  2  0
  3 38  1  0
  4  5  1  0
  4 44  1  0
  5  6  2  0
  5 45  1  0
  6  7  1  0
  6 37  1  0
  7  8  1  0
  7 46  1  0
  8  9  2  0
  8 16  1  0
  9 10  1  0
 10 11  2  0
 10 17  1  0
 11 12  1  0
 11 47  1  0
 12 13  1  0
 12 16  1  0
 13 14  2  0
 13 48  1  0
 14 15  1  0
 14 49  1  0
 15 16  2  0
 17 18  2  0
 17 22  1  0
 18 19  1  0
 18 50  1  0
 19 20  2  0
 19 51  1  0
 20 21  1  0
 20 52  1  0
 21 22  2  0
 21 23  1  0
 22 53  1  0
 23 24  2  0
 23 25  1  0
 25 26  1  0
 25 54  1  0
 26 27  2  0
 26 31  1  0
 27 28  1  0
 27 55  1  0
 28 29  2  0
 28 56  1  0
 29 30  1  0
 29 32  1  0
 30 31  2  0
 30 57  1  0
 31 58  1  0
 32 33  2  0
 32 36  1  0
 33 34  1  0
 34 35  2  0
 34 59  1  0
 35 36  1  0
 35 60  1  0
 36 61  1  0
 37 38  2  0
 37 62  1  0
 38 39  1  0
 39 40  1  0
 40 63  1  0
 40 64  1  0
 40 65  1  0
M  END
>  <s_m_entry_id>  (1) 
1087

>  <IC50[nM]>  (1) 
16.5

>  <s_m_Source_Path>  (1) 
/projects/mai/users/kmzp800_harry/pmx_colab/docking_jobs/syk

>  <s_m_Source_File>  (1) 
tnks2_lig.sdf

>  <i_m_Source_File_Index>  (1) 
44

>  <s_m_job_name>  (1) 
glide-dock_SP_syk_mcs

>  <r_i_docking_score>  (1) 
-7.5025273229221

>  <r_i_glide_gscore>  (1) 
-7.5025273229221

>  <r_i_glide_emodel>  (1) 
-71.3956041782148

>  <index_string>  (1) 
39:0:0

$$$$
