19:0:0
     RDKit          3D

 37 39  0  0  1  0  0  0  0  0999 V2000
  -14.3800  -14.8880  -27.6750 C   0  0  0  0  0  0  0  0  0  0  0  0
  -14.8760  -15.6650  -26.6320 C   0  0  0  0  0  0  0  0  0  0  0  0
  -14.5870  -13.5120  -27.6540 C   0  0  0  0  0  0  0  0  0  0  0  0
  -15.6040  -15.0890  -25.5830 C   0  0  0  0  0  0  0  0  0  0  0  0
  -14.6110  -17.0310  -26.6520 N   0  0  0  0  0  0  0  0  0  0  0  0
  -15.2880  -12.9330  -26.5990 C   0  0  0  0  0  0  0  0  0  0  0  0
  -15.8060  -13.7140  -25.5580 C   0  0  0  0  0  0  0  0  0  0  0  0
  -16.1420  -15.9950  -24.4950 C   0  0  0  0  0  0  0  0  0  0  0  0
  -15.7910  -17.2880  -24.7010 N   0  0  0  0  0  0  0  0  0  0  0  0
  -16.8390  -15.6690  -23.5330 O   0  0  0  0  0  0  0  0  0  0  0  0
  -15.0420  -17.8240  -25.7320 C   0  0  0  0  0  0  0  0  0  0  0  0
  -15.4640  -11.6040  -26.6070 F   0  0  0  0  0  0  0  0  0  0  0  0
  -16.4870  -13.1500  -24.5370 F   0  0  0  0  0  0  0  0  0  0  0  0
  -14.8000  -19.2690  -25.7800 C   0  0  0  0  0  0  0  0  0  0  0  0
  -14.3650  -19.9750  -24.6520 C   0  0  0  0  0  0  0  0  0  0  0  0
  -14.1380  -21.3390  -24.7390 C   0  0  0  0  0  0  0  0  0  0  0  0
  -14.3460  -22.0060  -25.9490 C   0  0  0  0  0  0  0  0  0  0  0  0
  -14.7910  -21.3060  -27.0660 C   0  0  0  0  0  0  0  0  0  0  0  0
  -15.0140  -19.9480  -26.9850 C   0  0  0  0  0  0  0  0  0  0  0  0
  -13.9560  -23.4680  -26.0770 C   0  0  0  0  0  0  0  0  0  0  0  0
  -12.9220  -23.7080  -27.1760 C   0  0  0  0  0  0  0  0  0  0  0  0
  -15.2510  -24.2590  -26.2060 C   0  0  0  0  0  0  0  0  0  0  0  0
  -13.3150  -23.9970  -24.9530 O   0  0  0  0  0  0  0  0  0  0  0  0
  -13.8312  -15.3559  -28.5056 H   0  0  0  0  0  0  0  0  0  0  0  0
  -14.1980  -12.8833  -28.4685 H   0  0  0  0  0  0  0  0  0  0  0  0
  -16.1267  -17.9600  -23.9962 H   0  0  0  0  0  0  0  0  0  0  0  0
  -14.2040  -19.4485  -23.6997 H   0  0  0  0  0  0  0  0  0  0  0  0
  -13.7940  -21.8968  -23.8555 H   0  0  0  0  0  0  0  0  0  0  0  0
  -14.9649  -21.8362  -28.0139 H   0  0  0  0  0  0  0  0  0  0  0  0
  -15.3614  -19.3960  -27.8708 H   0  0  0  0  0  0  0  0  0  0  0  0
  -11.9472  -23.9343  -26.7192 H   0  0  0  0  0  0  0  0  0  0  0  0
  -13.2403  -24.5562  -27.8000 H   0  0  0  0  0  0  0  0  0  0  0  0
  -12.8341  -22.8064  -27.8000 H   0  0  0  0  0  0  0  0  0  0  0  0
  -15.6378  -24.4952  -25.2037 H   0  0  0  0  0  0  0  0  0  0  0  0
  -15.9935  -23.6601  -26.7537 H   0  0  0  0  0  0  0  0  0  0  0  0
  -15.0571  -25.1930  -26.7537 H   0  0  0  0  0  0  0  0  0  0  0  0
  -13.7425  -23.6442  -24.1327 H   0  0  0  0  0  0  0  0  0  0  0  0
  1  3  2  0
  1  2  1  0
  2  4  2  0
  2  5  1  0
  3  6  1  0
  4  7  1  0
  4  8  1  0
  5 11  2  0
  6  7  2  0
  6 12  1  0
  7 13  1  0
  8 10  2  0
  8  9  1  0
  9 11  1  0
 11 14  1  0
 14 15  2  0
 14 19  1  0
 15 16  1  0
 16 17  2  0
 17 18  1  0
 17 20  1  0
 18 19  2  0
 20 23  1  0
 20 21  1  0
 20 22  1  0
  1 24  1  0
  3 25  1  0
  9 26  1  0
 15 27  1  0
 16 28  1  0
 18 29  1  0
 19 30  1  0
 21 31  1  0
 21 32  1  0
 21 33  1  0
 22 34  1  0
 22 35  1  0
 22 36  1  0
 23 37  1  0
M  END
>  <s_m_entry_id>  (1) 
2347

>  <MODEL>  (1) 
1

>  <REMARK>  (1) 
 VINA RESULT:   -11.127      0.000      0.000
 INTER + INTRA:         -13.213
 INTER:                 -12.753
 INTRA:                  -0.460
 UNBOUND:                -0.460
  Name = 5j
  5 active torsions:
  status: ('A' for Active; 'I' for Inactive)
    1  A    between atoms: C_11  and  C_12
    2  A    between atoms: C_15  and  C_18
    3  A    between atoms: C_18  and  O_19
    4  A    between atoms: C_18  and  C_22
    5  A    between atoms: C_18  and  C_23
                            x       y       z     vdW  Elec       q    Type
                         _______ _______ _______ _____ _____    ______ ____

>  <TORSDO>  (1) 
F 3

>  <s_m_Source_Path>  (1) 
/projects/mai/users/kmzp800_harry/pmx_colab/docking_jobs/tnks2/vina_prep/output

>  <s_m_Source_File>  (1) 
tnks_naive_vina.sdf

>  <i_m_Source_File_Index>  (1) 
20

>  <index_string>  (1) 
19:0:0

$$$$
