18:0:0
     RDKit          3D

 37 39  0  0  1  0  0  0  0  0999 V2000
  -14.4120  -14.9280  -27.6190 C   0  0  0  0  0  0  0  0  0  0  0  0
  -14.9140  -15.7180  -26.5860 C   0  0  0  0  0  0  0  0  0  0  0  0
  -14.6500  -13.5570  -27.5960 C   0  0  0  0  0  0  0  0  0  0  0  0
  -15.6800  -15.1570  -25.5560 C   0  0  0  0  0  0  0  0  0  0  0  0
  -14.6280  -17.0780  -26.6050 N   0  0  0  0  0  0  0  0  0  0  0  0
  -15.3970  -13.0050  -26.5580 C   0  0  0  0  0  0  0  0  0  0  0  0
  -15.9250  -13.7880  -25.5360 C   0  0  0  0  0  0  0  0  0  0  0  0
  -15.6230  -11.6910  -26.5540 F   0  0  0  0  0  0  0  0  0  0  0  0
  -16.2330  -16.0780  -24.4880 C   0  0  0  0  0  0  0  0  0  0  0  0
  -15.8400  -17.3640  -24.6810 N   0  0  0  0  0  0  0  0  0  0  0  0
  -16.9740  -15.7530  -23.5580 O   0  0  0  0  0  0  0  0  0  0  0  0
  -15.0610  -17.8850  -25.6990 C   0  0  0  0  0  0  0  0  0  0  0  0
  -14.7800  -19.3250  -25.7570 C   0  0  0  0  0  0  0  0  0  0  0  0
  -14.2570  -20.0220  -24.6620 C   0  0  0  0  0  0  0  0  0  0  0  0
  -13.9600  -21.3720  -24.7820 C   0  0  0  0  0  0  0  0  0  0  0  0
  -14.1950  -22.0410  -25.9900 C   0  0  0  0  0  0  0  0  0  0  0  0
  -14.7430  -21.3550  -27.0670 C   0  0  0  0  0  0  0  0  0  0  0  0
  -15.0340  -20.0110  -26.9520 C   0  0  0  0  0  0  0  0  0  0  0  0
  -13.7520  -23.4880  -26.1560 C   0  0  0  0  0  0  0  0  0  0  0  0
  -12.8080  -23.6530  -27.3410 C   0  0  0  0  0  0  0  0  0  0  0  0
  -15.0080  -24.3510  -26.1940 C   0  0  0  0  0  0  0  0  0  0  0  0
  -12.9760  -23.9960  -25.1030 O   0  0  0  0  0  0  0  0  0  0  0  0
  -13.8366  -15.3813  -28.4397 H   0  0  0  0  0  0  0  0  0  0  0  0
  -14.2504  -12.9129  -28.3931 H   0  0  0  0  0  0  0  0  0  0  0  0
  -16.5222  -13.3348  -24.7310 H   0  0  0  0  0  0  0  0  0  0  0  0
  -16.1650  -18.0410  -23.9761 H   0  0  0  0  0  0  0  0  0  0  0  0
  -14.0819  -19.5012  -23.7091 H   0  0  0  0  0  0  0  0  0  0  0  0
  -13.5386  -21.9188  -23.9256 H   0  0  0  0  0  0  0  0  0  0  0  0
  -14.9447  -21.8830  -28.0107 H   0  0  0  0  0  0  0  0  0  0  0  0
  -15.4696  -19.4730  -27.8068 H   0  0  0  0  0  0  0  0  0  0  0  0
  -11.7865  -23.8315  -26.9740 H   0  0  0  0  0  0  0  0  0  0  0  0
  -13.1327  -24.5080  -27.9522 H   0  0  0  0  0  0  0  0  0  0  0  0
  -12.8234  -22.7385  -27.9522 H   0  0  0  0  0  0  0  0  0  0  0  0
  -15.3314  -24.5732  -25.1664 H   0  0  0  0  0  0  0  0  0  0  0  0
  -15.8081  -23.8110  -26.7215 H   0  0  0  0  0  0  0  0  0  0  0  0
  -14.7908  -25.2915  -26.7215 H   0  0  0  0  0  0  0  0  0  0  0  0
  -13.3795  -23.7318  -24.2384 H   0  0  0  0  0  0  0  0  0  0  0  0
  1  3  2  0
  1  2  1  0
  2  4  2  0
  2  5  1  0
  3  6  1  0
  4  7  1  0
  4  9  1  0
  5 12  2  0
  6  8  1  0
  6  7  2  0
  9 11  2  0
  9 10  1  0
 10 12  1  0
 12 13  1  0
 13 14  2  0
 13 18  1  0
 14 15  1  0
 15 16  2  0
 16 17  1  0
 16 19  1  0
 17 18  2  0
 19 22  1  0
 19 20  1  0
 19 21  1  0
  1 23  1  0
  3 24  1  0
  7 25  1  0
 10 26  1  0
 14 27  1  0
 15 28  1  0
 17 29  1  0
 18 30  1  0
 20 31  1  0
 20 32  1  0
 20 33  1  0
 21 34  1  0
 21 35  1  0
 21 36  1  0
 22 37  1  0
M  END
>  <s_m_entry_id>  (1) 
2346

>  <MODEL>  (1) 
1

>  <REMARK>  (1) 
 VINA RESULT:   -11.142      0.000      0.000
 INTER + INTRA:         -13.213
 INTER:                 -12.770
 INTRA:                  -0.443
 UNBOUND:                -0.443
  Name = 5d
  5 active torsions:
  status: ('A' for Active; 'I' for Inactive)
    1  A    between atoms: C_12  and  C_13
    2  A    between atoms: C_16  and  C_19
    3  A    between atoms: C_19  and  O_20
    4  A    between atoms: C_19  and  C_21
    5  A    between atoms: C_19  and  C_22
                            x       y       z     vdW  Elec       q    Type
                         _______ _______ _______ _____ _____    ______ ____

>  <TORSDO>  (1) 
F 3

>  <s_m_Source_Path>  (1) 
/projects/mai/users/kmzp800_harry/pmx_colab/docking_jobs/tnks2/vina_prep/output

>  <s_m_Source_File>  (1) 
tnks_naive_vina.sdf

>  <i_m_Source_File_Index>  (1) 
19

>  <index_string>  (1) 
18:0:0

$$$$
