22:0:0
     RDKit          3D

 51 54  0  0  1  0  0  0  0  0999 V2000
   -4.2430   -2.9895   16.0582 C   0  0  0  0  0  0  0  0  0  0  0  0
   -3.6955   -2.1303   15.0674 O   0  0  0  0  0  0  0  0  0  0  0  0
   -2.3229   -1.9993   15.0129 C   0  0  0  0  0  0  0  0  0  0  0  0
   -1.4297   -2.7958   15.7714 C   0  0  0  0  0  0  0  0  0  0  0  0
   -0.0442   -2.5706   15.7045 C   0  0  0  0  0  0  0  0  0  0  0  0
    0.4889   -1.5611   14.8799 C   0  0  0  0  0  0  0  0  0  0  0  0
    1.8853   -1.3910   14.9188 N   0  0  0  0  0  0  0  0  0  0  0  0
    2.7381   -0.3961   14.4042 C   0  0  0  0  0  0  0  0  0  0  0  0
    2.3417    0.4122   13.4584 N   0  0  0  0  0  0  0  0  0  0  0  0
    3.1604    1.4466   13.0493 C   0  0  0  0  0  0  0  0  0  0  0  0
    4.4230    1.6324   13.5508 C   0  0  0  0  0  0  0  0  0  0  0  0
    4.8387    0.7926   14.5246 N   0  0  0  0  0  0  0  0  0  0  0  0
    6.0026    0.7716   15.2598 C   0  0  0  0  0  0  0  0  0  0  0  0
    5.8092   -0.1728   16.2263 C   0  0  0  0  0  0  0  0  0  0  0  0
    4.6005   -0.8344   16.0657 N   0  0  0  0  0  0  0  0  0  0  0  0
    4.0196   -0.2523   15.0174 C   0  0  0  0  0  0  0  0  0  0  0  0
    2.5925    2.3785   12.0491 C   0  0  0  0  0  0  0  0  0  0  0  0
    1.2746    2.8566   12.2261 C   0  0  0  0  0  0  0  0  0  0  0  0
    0.6744    3.7046   11.2779 C   0  0  0  0  0  0  0  0  0  0  0  0
    1.3935    4.1059   10.1325 C   0  0  0  0  0  0  0  0  0  0  0  0
    2.7223    3.6775    9.9668 C   0  0  0  0  0  0  0  0  0  0  0  0
    3.3112    2.8047   10.8978 C   0  0  0  0  0  0  0  0  0  0  0  0
    4.6965    2.2977   10.5688 C   0  0  0  0  0  0  0  0  0  0  0  0
    0.7655    5.0084    9.1152 C   0  0  0  0  0  0  0  0  0  0  0  0
    1.3860    5.9430    8.6174 O   0  0  0  0  0  0  0  0  0  0  0  0
   -0.4794    4.6942    8.7524 N   0  0  0  0  0  0  0  0  0  0  0  0
   -0.4020   -0.7937   14.0935 C   0  0  0  0  0  0  0  0  0  0  0  0
   -1.8041   -1.0047   14.1528 C   0  0  0  0  0  0  0  0  0  0  0  0
   -2.7167   -0.2694   13.4188 O   0  0  0  0  0  0  0  0  0  0  0  0
   -2.2187    0.6334   12.4397 C   0  0  0  0  0  0  0  0  0  0  0  0
   -5.3304   -2.9216   16.0329 H   0  0  0  0  0  0  0  0  0  0  0  0
   -3.9739   -4.0309   15.8767 H   0  0  0  0  0  0  0  0  0  0  0  0
   -3.9197   -2.7024   17.0602 H   0  0  0  0  0  0  0  0  0  0  0  0
   -1.7801   -3.5724   16.4352 H   0  0  0  0  0  0  0  0  0  0  0  0
    0.6104   -3.1776   16.3143 H   0  0  0  0  0  0  0  0  0  0  0  0
    2.3519   -1.9719   15.6032 H   0  0  0  0  0  0  0  0  0  0  0  0
    5.0823    2.4472   13.2736 H   0  0  0  0  0  0  0  0  0  0  0  0
    6.7955    1.4780   15.0612 H   0  0  0  0  0  0  0  0  0  0  0  0
    6.4495   -0.3960   17.0614 H   0  0  0  0  0  0  0  0  0  0  0  0
    0.7097    2.5594   13.0979 H   0  0  0  0  0  0  0  0  0  0  0  0
   -0.3362    4.0493   11.4424 H   0  0  0  0  0  0  0  0  0  0  0  0
    3.2761    3.9912    9.0929 H   0  0  0  0  0  0  0  0  0  0  0  0
    5.4543    2.9363   11.0191 H   0  0  0  0  0  0  0  0  0  0  0  0
    4.8368    1.2682   10.8950 H   0  0  0  0  0  0  0  0  0  0  0  0
    4.8301    2.3117    9.4882 H   0  0  0  0  0  0  0  0  0  0  0  0
   -0.9477    5.2404    8.0437 H   0  0  0  0  0  0  0  0  0  0  0  0
   -0.9346    3.8984    9.1708 H   0  0  0  0  0  0  0  0  0  0  0  0
   -0.0171   -0.0264   13.4485 H   0  0  0  0  0  0  0  0  0  0  0  0
   -3.0530    1.0582   11.8819 H   0  0  0  0  0  0  0  0  0  0  0  0
   -1.6757    1.4597   12.9009 H   0  0  0  0  0  0  0  0  0  0  0  0
   -1.5699    0.1297   11.7210 H   0  0  0  0  0  0  0  0  0  0  0  0
  1  2  1  0
  1 31  1  0
  1 32  1  0
  1 33  1  0
  2  3  1  0
  3  4  2  0
  3 28  1  0
  4  5  1  0
  4 34  1  0
  5  6  2  0
  5 35  1  0
  6  7  1  0
  6 27  1  0
  7  8  1  0
  7 36  1  0
  8  9  2  0
  8 16  1  0
  9 10  1  0
 10 11  2  0
 10 17  1  0
 11 12  1  0
 11 37  1  0
 12 13  1  0
 12 16  1  0
 13 14  2  0
 13 38  1  0
 14 15  1  0
 14 39  1  0
 15 16  2  0
 17 18  2  0
 17 22  1  0
 18 19  1  0
 18 40  1  0
 19 20  2  0
 19 41  1  0
 20 21  1  0
 20 24  1  0
 21 22  2  0
 21 42  1  0
 22 23  1  0
 23 43  1  0
 23 44  1  0
 23 45  1  0
 24 25  2  0
 24 26  1  0
 26 46  1  0
 26 47  1  0
 27 28  2  0
 27 48  1  0
 28 29  1  0
 29 30  1  0
 30 49  1  0
 30 50  1  0
 30 51  1  0
M  END
>  <s_m_entry_id>  (1) 
1084

>  <IC50[nM]>  (1) 
113

>  <s_m_Source_Path>  (1) 
/projects/mai/users/kmzp800_harry/pmx_colab/docking_jobs/syk

>  <s_m_Source_File>  (1) 
tnks2_lig.sdf

>  <i_m_Source_File_Index>  (1) 
24

>  <s_m_job_name>  (1) 
glide-dock_SP_syk_mcs

>  <r_i_docking_score>  (1) 
-7.56411910034123

>  <r_i_glide_gscore>  (1) 
-7.56411910034123

>  <r_i_glide_emodel>  (1) 
-64.146949899552

>  <index_string>  (1) 
22:0:0

$$$$
