11:0:0
     RDKit          3D

 49 52  0  0  1  0  0  0  0  0999 V2000
  -14.4189  -14.8072  -27.6986 C   0  0  0  0  0  0  0  0  0  0  0  0
  -15.0120  -15.6171  -26.7046 C   0  0  0  0  0  0  0  0  0  0  0  0
  -14.4897  -13.4155  -27.6299 C   0  0  0  0  0  0  0  0  0  0  0  0
  -15.7384  -15.0063  -25.6500 C   0  0  0  0  0  0  0  0  0  0  0  0
  -14.8475  -17.0120  -26.7574 N   0  0  0  0  0  0  0  0  0  0  0  0
  -15.2419  -12.8081  -26.6298 C   0  0  0  0  0  0  0  0  0  0  0  0
  -15.8702  -13.5925  -25.6244 C   0  0  0  0  0  0  0  0  0  0  0  0
  -16.3563  -15.9275  -24.6282 C   0  0  0  0  0  0  0  0  0  0  0  0
  -16.1162  -17.2357  -24.8106 N   0  0  0  0  0  0  0  0  0  0  0  0
  -17.0407  -15.5721  -23.6757 O   0  0  0  0  0  0  0  0  0  0  0  0
  -15.3631  -17.7850  -25.8406 C   0  0  0  0  0  0  0  0  0  0  0  0
  -15.1963  -19.2590  -25.9296 C   0  0  0  0  0  0  0  0  0  0  0  0
  -14.7804  -19.8409  -27.1347 C   0  0  0  0  0  0  0  0  0  0  0  0
  -14.5666  -21.2164  -27.2171 C   0  0  0  0  0  0  0  0  0  0  0  0
  -14.7807  -22.0509  -26.1152 C   0  0  0  0  0  0  0  0  0  0  0  0
  -15.2377  -21.4849  -24.9228 C   0  0  0  0  0  0  0  0  0  0  0  0
  -15.4355  -20.0885  -24.8219 C   0  0  0  0  0  0  0  0  0  0  0  0
  -13.7114  -15.3605  -28.8922 C   0  0  0  0  0  0  0  0  0  0  0  0
  -15.3391  -11.4647  -26.7406 F   0  0  0  0  0  0  0  0  0  0  0  0
  -14.5216  -23.5448  -26.2199 C   0  0  0  0  0  0  0  0  0  0  0  0
  -15.5745  -24.2137  -27.1213 C   0  0  0  0  0  0  0  0  0  0  0  0
  -15.2803  -25.7051  -27.3340 C   0  0  0  0  0  0  0  0  0  0  0  0
  -13.9106  -25.9028  -27.8729 N   0  0  0  0  0  0  0  0  0  0  0  0
  -12.8674  -25.3421  -26.9745 C   0  0  0  0  0  0  0  0  0  0  0  0
  -13.0947  -23.8432  -26.7267 C   0  0  0  0  0  0  0  0  0  0  0  0
  -13.6498  -27.3154  -28.2260 C   0  0  0  0  0  0  0  0  0  0  0  0
  -14.0274  -12.8100  -28.3866 H   0  0  0  0  0  0  0  0  0  0  0  0
  -16.4415  -13.1133  -24.8404 H   0  0  0  0  0  0  0  0  0  0  0  0
  -16.5661  -17.8647  -24.1485 H   0  0  0  0  0  0  0  0  0  0  0  0
  -14.6152  -19.2329  -28.0124 H   0  0  0  0  0  0  0  0  0  0  0  0
  -14.2299  -21.5599  -28.1749 H   0  0  0  0  0  0  0  0  0  0  0  0
  -15.3909  -22.0924  -24.0403 H   0  0  0  0  0  0  0  0  0  0  0  0
  -15.7467  -19.6773  -23.8713 H   0  0  0  0  0  0  0  0  0  0  0  0
  -14.0594  -16.3705  -29.0612 H   0  0  0  0  0  0  0  0  0  0  0  0
  -13.9655  -14.7671  -29.7733 H   0  0  0  0  0  0  0  0  0  0  0  0
  -12.6262  -15.2876  -28.7644 H   0  0  0  0  0  0  0  0  0  0  0  0
  -14.6121  -23.9837  -25.2197 H   0  0  0  0  0  0  0  0  0  0  0  0
  -16.5634  -24.0870  -26.6813 H   0  0  0  0  0  0  0  0  0  0  0  0
  -15.6061  -23.7093  -28.0869 H   0  0  0  0  0  0  0  0  0  0  0  0
  -15.4107  -26.2464  -26.3989 H   0  0  0  0  0  0  0  0  0  0  0  0
  -16.0127  -26.1075  -28.0333 H   0  0  0  0  0  0  0  0  0  0  0  0
  -12.8478  -25.8871  -26.0344 H   0  0  0  0  0  0  0  0  0  0  0  0
  -11.8862  -25.4759  -27.4314 H   0  0  0  0  0  0  0  0  0  0  0  0
  -12.8933  -23.3064  -27.6552 H   0  0  0  0  0  0  0  0  0  0  0  0
  -12.3664  -23.4739  -26.0023 H   0  0  0  0  0  0  0  0  0  0  0  0
  -13.7044  -27.9663  -27.3513 H   0  0  0  0  0  0  0  0  0  0  0  0
  -14.3769  -27.6702  -28.9586 H   0  0  0  0  0  0  0  0  0  0  0  0
  -12.6616  -27.4306  -28.6707 H   0  0  0  0  0  0  0  0  0  0  0  0
  -13.8615  -25.3828  -28.7400 H   0  0  0  0  0  0  0  0  0  0  0  0
  1  2  2  0
  1  3  1  0
  1 18  1  0
  2  4  1  0
  2  5  1  0
  3  6  2  0
  3 27  1  0
  4  7  2  0
  4  8  1  0
  5 11  2  0
  6  7  1  0
  6 19  1  0
  7 28  1  0
  8  9  1  0
  8 10  2  0
  9 11  1  0
  9 29  1  0
 11 12  1  0
 12 13  2  0
 12 17  1  0
 13 14  1  0
 13 30  1  0
 14 15  2  0
 14 31  1  0
 15 16  1  0
 15 20  1  0
 16 17  2  0
 16 32  1  0
 17 33  1  0
 18 34  1  0
 18 35  1  0
 18 36  1  0
 20 21  1  0
 20 25  1  0
 20 37  1  0
 21 22  1  0
 21 38  1  0
 21 39  1  0
 22 23  1  0
 22 40  1  0
 22 41  1  0
 23 24  1  0
 23 26  1  0
 23 49  1  0
 24 25  1  0
 24 42  1  0
 24 43  1  0
 25 44  1  0
 25 45  1  0
 26 46  1  0
 26 47  1  0
 26 48  1  0
M  CHG  1  23   1
M  END
>  <s_m_entry_id>  (1) 
453

>  <Name>  (1) 
8f

>  <IC50[nM]>  (1) 
2.2

>  <s_m_Source_Path>  (1) 
/projects/mai/users/kmzp800_harry/pmx_colab/docking_jobs/tnks2

>  <s_m_Source_File>  (1) 
tnks2_lig.sdf

>  <i_m_Source_File_Index>  (1) 
12

>  <s_m_job_name>  (1) 
glide-dock_SP_tnks2_core_const

>  <r_i_docking_score>  (1) 
-10.5152773095564

>  <r_i_glide_gscore>  (1) 
-10.5152773095564

>  <r_i_glide_emodel>  (1) 
-38.1367763927825

>  <index_string>  (1) 
11:0:0

$$$$
