11:0:0
     RDKit          3D

 47 49  0  0  1  0  0  0  0  0999 V2000
  -14.7790  -19.3320  -25.8160 C   0  0  0  0  0  0  0  0  0  0  0  0
  -14.2530  -20.0120  -24.7110 C   0  0  0  0  0  0  0  0  0  0  0  0
  -15.0000  -20.0480  -27.0040 C   0  0  0  0  0  0  0  0  0  0  0  0
  -13.9590  -21.3650  -24.7940 C   0  0  0  0  0  0  0  0  0  0  0  0
  -14.7340  -21.4120  -27.0750 C   0  0  0  0  0  0  0  0  0  0  0  0
  -14.2140  -22.0920  -25.9680 C   0  0  0  0  0  0  0  0  0  0  0  0
  -15.0790  -17.8840  -25.7440 C   0  0  0  0  0  0  0  0  0  0  0  0
  -15.8150  -17.3860  -24.6800 N   0  0  0  0  0  0  0  0  0  0  0  0
  -16.1610  -16.1010  -24.4030 C   0  0  0  0  0  0  0  0  0  0  0  0
  -14.6850  -17.0450  -26.6460 N   0  0  0  0  0  0  0  0  0  0  0  0
  -14.9330  -15.6700  -26.5400 C   0  0  0  0  0  0  0  0  0  0  0  0
  -15.6410  -15.1390  -25.4520 C   0  0  0  0  0  0  0  0  0  0  0  0
  -15.8450  -13.7580  -25.3520 C   0  0  0  0  0  0  0  0  0  0  0  0
  -15.3400  -12.9200  -26.3510 C   0  0  0  0  0  0  0  0  0  0  0  0
  -14.6490  -13.4540  -27.4400 C   0  0  0  0  0  0  0  0  0  0  0  0
  -14.4460  -14.8300  -27.5400 C   0  0  0  0  0  0  0  0  0  0  0  0
  -16.8370  -15.8100  -23.4140 O   0  0  0  0  0  0  0  0  0  0  0  0
  -15.5180  -11.5830  -26.2790 F   0  0  0  0  0  0  0  0  0  0  0  0
  -13.8700  -23.5990  -26.0490 C   0  0  0  0  0  0  0  0  0  0  0  0
  -13.0660  -23.9960  -24.7910 C   0  0  0  0  0  0  0  0  0  0  0  0
  -13.0830  -23.8160  -27.3460 C   0  0  0  0  0  0  0  0  0  0  0  0
  -15.0880  -24.3590  -26.1980 O   0  0  0  0  0  0  0  0  0  0  0  0
  -15.4310  -25.0570  -27.4070 C   0  0  0  0  0  0  0  0  0  0  0  0
  -16.7660  -24.6710  -28.0750 C   0  0  0  0  0  0  0  0  0  0  0  0
  -16.8950  -25.0880  -29.4280 O   0  0  0  0  0  0  0  0  0  0  0  0
  -17.2490  -26.4570  -29.5900 C   0  0  0  0  0  0  0  0  0  0  0  0
  -14.0718  -19.4699  -23.7712 H   0  0  0  0  0  0  0  0  0  0  0  0
  -15.3883  -19.5237  -27.8896 H   0  0  0  0  0  0  0  0  0  0  0  0
  -13.5187  -21.8770  -23.9257 H   0  0  0  0  0  0  0  0  0  0  0  0
  -14.9339  -21.9596  -28.0078 H   0  0  0  0  0  0  0  0  0  0  0  0
  -16.1464  -18.0889  -24.0040 H   0  0  0  0  0  0  0  0  0  0  0  0
  -16.3958  -13.3370  -24.4980 H   0  0  0  0  0  0  0  0  0  0  0  0
  -14.2625  -12.7857  -28.2236 H   0  0  0  0  0  0  0  0  0  0  0  0
  -13.9056  -15.2493  -28.4015 H   0  0  0  0  0  0  0  0  0  0  0  0
  -13.6324  -23.7163  -23.8905 H   0  0  0  0  0  0  0  0  0  0  0  0
  -12.8942  -25.0825  -24.7934 H   0  0  0  0  0  0  0  0  0  0  0  0
  -12.0989  -23.4719  -24.7934 H   0  0  0  0  0  0  0  0  0  0  0  0
  -12.0486  -24.1012  -27.1039 H   0  0  0  0  0  0  0  0  0  0  0  0
  -13.5565  -24.6171  -27.9325 H   0  0  0  0  0  0  0  0  0  0  0  0
  -13.0790  -22.8854  -27.9325 H   0  0  0  0  0  0  0  0  0  0  0  0
  -14.6282  -24.8742  -28.1365 H   0  0  0  0  0  0  0  0  0  0  0  0
  -15.5506  -26.1091  -27.1091 H   0  0  0  0  0  0  0  0  0  0  0  0
  -17.5831  -25.1267  -27.4965 H   0  0  0  0  0  0  0  0  0  0  0  0
  -16.8030  -23.5717  -28.0835 H   0  0  0  0  0  0  0  0  0  0  0  0
  -17.3697  -26.9240  -28.6014 H   0  0  0  0  0  0  0  0  0  0  0  0
  -18.1950  -26.5277  -30.1469 H   0  0  0  0  0  0  0  0  0  0  0  0
  -16.4559  -26.9774  -30.1469 H   0  0  0  0  0  0  0  0  0  0  0  0
  1  7  1  0
  1  2  2  0
  1  3  1  0
  2  4  1  0
  3  5  2  0
  4  6  2  0
  5  6  1  0
  6 19  1  0
  7  8  1  0
  7 10  2  0
  8  9  1  0
  9 17  2  0
  9 12  1  0
 10 11  1  0
 11 12  2  0
 11 16  1  0
 12 13  1  0
 13 14  2  0
 14 18  1  0
 14 15  1  0
 15 16  2  0
 19 20  1  0
 19 21  1  0
 19 22  1  0
 22 23  1  0
 23 24  1  0
 24 25  1  0
 25 26  1  0
  2 27  1  0
  3 28  1  0
  4 29  1  0
  5 30  1  0
  8 31  1  0
 13 32  1  0
 15 33  1  0
 16 34  1  0
 20 35  1  0
 20 36  1  0
 20 37  1  0
 21 38  1  0
 21 39  1  0
 21 40  1  0
 23 41  1  0
 23 42  1  0
 24 43  1  0
 24 44  1  0
 26 45  1  0
 26 46  1  0
 26 47  1  0
M  END
>  <s_m_entry_id>  (1) 
2339

>  <MODEL>  (1) 
1

>  <REMARK>  (1) 
 VINA RESULT:   -10.288      0.000      0.000
 INTER + INTRA:         -14.550
 INTER:                 -13.897
 INTRA:                  -0.653
 UNBOUND:                -0.653
  Name = 5p
  9 active torsions:
  status: ('A' for Active; 'I' for Inactive)
    1  A    between atoms: C_1  and  C_4
    2  A    between atoms: C_7  and  C_18
    3  A    between atoms: C_18  and  O_19
    4  A    between atoms: C_18  and  C_25
    5  A    between atoms: C_18  and  C_26
    6  A    between atoms: O_19  and  C_21
    7  A    between atoms: C_21  and  C_22
    8  A    between atoms: C_22  and  O_23
    9  A    between atoms: O_23  and  C_24
                            x       y       z     vdW  Elec       q    Type
                         _______ _______ _______ _____ _____    ______ ____

>  <TORSDO>  (1) 
F 6

>  <s_m_Source_Path>  (1) 
/projects/mai/users/kmzp800_harry/pmx_colab/docking_jobs/tnks2/vina_prep/output

>  <s_m_Source_File>  (1) 
tnks_naive_vina.sdf

>  <i_m_Source_File_Index>  (1) 
12

>  <index_string>  (1) 
11:0:0

$$$$
