12:0:0
     RDKit          3D

 40 42  0  0  1  0  0  0  0  0999 V2000
  -14.6000  -14.5590  -27.3760 C   0  0  0  0  0  0  0  0  0  0  0  0
  -15.0640  -15.4790  -26.4180 C   0  0  0  0  0  0  0  0  0  0  0  0
  -14.8380  -13.1940  -27.1800 C   0  0  0  0  0  0  0  0  0  0  0  0
  -15.8230  -15.0260  -25.3310 C   0  0  0  0  0  0  0  0  0  0  0  0
  -14.7450  -16.8470  -26.5350 N   0  0  0  0  0  0  0  0  0  0  0  0
  -15.5560  -12.7530  -26.0700 C   0  0  0  0  0  0  0  0  0  0  0  0
  -16.0700  -13.6670  -25.1500 C   0  0  0  0  0  0  0  0  0  0  0  0
  -16.3570  -16.0440  -24.3510 C   0  0  0  0  0  0  0  0  0  0  0  0
  -15.8550  -17.2830  -24.5850 N   0  0  0  0  0  0  0  0  0  0  0  0
  -17.1790  -15.8240  -23.4630 O   0  0  0  0  0  0  0  0  0  0  0  0
  -15.1020  -17.7250  -25.6540 C   0  0  0  0  0  0  0  0  0  0  0  0
  -13.8060  -15.0010  -28.6000 C   0  0  0  0  0  0  0  0  0  0  0  0
  -14.7770  -19.1650  -25.7690 C   0  0  0  0  0  0  0  0  0  0  0  0
  -15.0200  -19.8290  -26.9790 C   0  0  0  0  0  0  0  0  0  0  0  0
  -14.7100  -21.1730  -27.1280 C   0  0  0  0  0  0  0  0  0  0  0  0
  -14.1450  -21.8940  -26.0760 C   0  0  0  0  0  0  0  0  0  0  0  0
  -13.9170  -21.2430  -24.8560 C   0  0  0  0  0  0  0  0  0  0  0  0
  -14.2330  -19.8940  -24.7020 C   0  0  0  0  0  0  0  0  0  0  0  0
  -13.7020  -23.3530  -26.2800 C   0  0  0  0  0  0  0  0  0  0  0  0
  -12.7580  -23.5240  -27.4710 C   0  0  0  0  0  0  0  0  0  0  0  0
  -14.9490  -24.2310  -26.3980 C   0  0  0  0  0  0  0  0  0  0  0  0
  -12.9320  -23.8780  -25.2170 O   0  0  0  0  0  0  0  0  0  0  0  0
  -14.4553  -12.4634  -27.9078 H   0  0  0  0  0  0  0  0  0  0  0  0
  -15.7187  -11.6758  -25.9181 H   0  0  0  0  0  0  0  0  0  0  0  0
  -16.6634  -13.3187  -24.2917 H   0  0  0  0  0  0  0  0  0  0  0  0
  -16.0647  -17.9905  -23.8664 H   0  0  0  0  0  0  0  0  0  0  0  0
  -12.8875  -15.5123  -28.2762 H   0  0  0  0  0  0  0  0  0  0  0  0
  -14.4157  -15.6896  -29.2035 H   0  0  0  0  0  0  0  0  0  0  0  0
  -13.5420  -14.1201  -29.2035 H   0  0  0  0  0  0  0  0  0  0  0  0
  -15.4623  -19.2773  -27.8216 H   0  0  0  0  0  0  0  0  0  0  0  0
  -14.9118  -21.6753  -28.0856 H   0  0  0  0  0  0  0  0  0  0  0  0
  -13.4849  -21.8014  -24.0125 H   0  0  0  0  0  0  0  0  0  0  0  0
  -14.0543  -19.3980  -23.7366 H   0  0  0  0  0  0  0  0  0  0  0  0
  -11.7369  -23.7090  -27.1060 H   0  0  0  0  0  0  0  0  0  0  0  0
  -13.0891  -24.3768  -28.0818 H   0  0  0  0  0  0  0  0  0  0  0  0
  -12.7689  -22.6093  -28.0818 H   0  0  0  0  0  0  0  0  0  0  0  0
  -15.3133  -24.4875  -25.3923 H   0  0  0  0  0  0  0  0  0  0  0  0
  -15.7323  -23.6841  -26.9433 H   0  0  0  0  0  0  0  0  0  0  0  0
  -14.6981  -25.1528  -26.9433 H   0  0  0  0  0  0  0  0  0  0  0  0
  -13.3321  -23.6052  -24.3535 H   0  0  0  0  0  0  0  0  0  0  0  0
  1  3  2  0
  1  2  1  0
  1 12  1  0
  2  4  2  0
  2  5  1  0
  3  6  1  0
  4  7  1  0
  4  8  1  0
  5 11  2  0
  6  7  2  0
  8 10  2  0
  8  9  1  0
  9 11  1  0
 11 13  1  0
 13 18  1  0
 13 14  2  0
 14 15  1  0
 15 16  2  0
 16 17  1  0
 16 19  1  0
 17 18  2  0
 19 22  1  0
 19 20  1  0
 19 21  1  0
  3 23  1  0
  6 24  1  0
  7 25  1  0
  9 26  1  0
 12 27  1  0
 12 28  1  0
 12 29  1  0
 14 30  1  0
 15 31  1  0
 17 32  1  0
 18 33  1  0
 20 34  1  0
 20 35  1  0
 20 36  1  0
 21 37  1  0
 21 38  1  0
 21 39  1  0
 22 40  1  0
M  END
>  <s_m_entry_id>  (1) 
2340

>  <MODEL>  (1) 
1

>  <REMARK>  (1) 
 VINA RESULT:   -11.185      0.000      0.000
 INTER + INTRA:         -13.251
 INTER:                 -12.820
 INTRA:                  -0.432
 UNBOUND:                -0.432
  Name = 5i
  6 active torsions:
  status: ('A' for Active; 'I' for Inactive)
    1  A    between atoms: C_1  and  C_22
    2  A    between atoms: C_11  and  C_12
    3  A    between atoms: C_15  and  C_18
    4  A    between atoms: C_18  and  O_19
    5  A    between atoms: C_18  and  C_20
    6  A    between atoms: C_18  and  C_21
                            x       y       z     vdW  Elec       q    Type
                         _______ _______ _______ _____ _____    ______ ____

>  <TORSDO>  (1) 
F 3

>  <s_m_Source_Path>  (1) 
/projects/mai/users/kmzp800_harry/pmx_colab/docking_jobs/tnks2/vina_prep/output

>  <s_m_Source_File>  (1) 
tnks_naive_vina.sdf

>  <i_m_Source_File_Index>  (1) 
13

>  <index_string>  (1) 
12:0:0

$$$$
