16:0:0
     RDKit          3D

 51 54  0  0  1  0  0  0  0  0999 V2000
   -2.2545    5.1465   12.8318 C   0  0  0  0  0  0  0  0  0  0  0  0
   -0.9506    4.5618   12.5572 N   0  0  0  0  0  0  0  0  0  0  0  0
   -0.5601    4.1264   11.3504 C   0  0  0  0  0  0  0  0  0  0  0  0
   -1.2683    4.1706   10.3451 O   0  0  0  0  0  0  0  0  0  0  0  0
    0.8441    3.6096   11.2857 C   0  0  0  0  0  0  0  0  0  0  0  0
    1.6961    4.0246   10.2426 C   0  0  0  0  0  0  0  0  0  0  0  0
    3.0303    3.5871   10.2166 C   0  0  0  0  0  0  0  0  0  0  0  0
    3.5061    2.7124   11.2117 C   0  0  0  0  0  0  0  0  0  0  0  0
    2.6514    2.2262   12.2308 C   0  0  0  0  0  0  0  0  0  0  0  0
    1.3220    2.7056   12.2602 C   0  0  0  0  0  0  0  0  0  0  0  0
    3.1330    1.2604   13.2478 C   0  0  0  0  0  0  0  0  0  0  0  0
    4.4366    1.2814   13.6839 C   0  0  0  0  0  0  0  0  0  0  0  0
    4.7625    0.4699   14.7207 N   0  0  0  0  0  0  0  0  0  0  0  0
    5.9065    0.3712   15.4848 C   0  0  0  0  0  0  0  0  0  0  0  0
    5.5945   -0.4955   16.5012 C   0  0  0  0  0  0  0  0  0  0  0  0
    4.3479   -1.0561   16.3368 N   0  0  0  0  0  0  0  0  0  0  0  0
    3.8229   -0.4213   15.2952 C   0  0  0  0  0  0  0  0  0  0  0  0
    2.5206   -0.4311   14.7291 C   0  0  0  0  0  0  0  0  0  0  0  0
    1.5398   -1.2868   15.2605 N   0  0  0  0  0  0  0  0  0  0  0  0
    0.1994   -1.4937   14.8841 C   0  0  0  0  0  0  0  0  0  0  0  0
   -0.3906   -2.7206   15.2422 C   0  0  0  0  0  0  0  0  0  0  0  0
   -1.7302   -2.9959   14.9131 C   0  0  0  0  0  0  0  0  0  0  0  0
   -2.5181   -2.0415   14.2208 C   0  0  0  0  0  0  0  0  0  0  0  0
   -3.8393   -2.2421   13.8733 O   0  0  0  0  0  0  0  0  0  0  0  0
   -4.4392   -3.4847   14.2037 C   0  0  0  0  0  0  0  0  0  0  0  0
   -1.9494   -0.7955   13.8783 C   0  0  0  0  0  0  0  0  0  0  0  0
   -2.7705    0.1077   13.2326 O   0  0  0  0  0  0  0  0  0  0  0  0
   -2.1657    1.2493   12.6503 C   0  0  0  0  0  0  0  0  0  0  0  0
   -0.5975   -0.5321   14.2162 C   0  0  0  0  0  0  0  0  0  0  0  0
    2.2024    0.3772   13.7521 N   0  0  0  0  0  0  0  0  0  0  0  0
   -2.3204    5.4185   13.8842 H   0  0  0  0  0  0  0  0  0  0  0  0
   -3.0496    4.4338   12.6118 H   0  0  0  0  0  0  0  0  0  0  0  0
   -2.4137    6.0427   12.2292 H   0  0  0  0  0  0  0  0  0  0  0  0
   -0.2773    4.5443   13.3112 H   0  0  0  0  0  0  0  0  0  0  0  0
    1.3405    4.7055    9.4782 H   0  0  0  0  0  0  0  0  0  0  0  0
    3.6890    3.9228    9.4296 H   0  0  0  0  0  0  0  0  0  0  0  0
    4.5303    2.3731   11.1622 H   0  0  0  0  0  0  0  0  0  0  0  0
    0.6606    2.3717   13.0466 H   0  0  0  0  0  0  0  0  0  0  0  0
    5.1901    1.9775   13.3346 H   0  0  0  0  0  0  0  0  0  0  0  0
    6.7699    0.9837   15.2715 H   0  0  0  0  0  0  0  0  0  0  0  0
    6.1190   -0.7430   17.3978 H   0  0  0  0  0  0  0  0  0  0  0  0
    1.9002   -1.9299   15.9552 H   0  0  0  0  0  0  0  0  0  0  0  0
    0.1799   -3.4663   15.7785 H   0  0  0  0  0  0  0  0  0  0  0  0
   -2.1319   -3.9508   15.2146 H   0  0  0  0  0  0  0  0  0  0  0  0
   -5.4725   -3.4880   13.8550 H   0  0  0  0  0  0  0  0  0  0  0  0
   -3.9138   -4.3142   13.7282 H   0  0  0  0  0  0  0  0  0  0  0  0
   -4.4544   -3.6478   15.2825 H   0  0  0  0  0  0  0  0  0  0  0  0
   -2.9115    1.8004   12.0777 H   0  0  0  0  0  0  0  0  0  0  0  0
   -1.7724    1.9223   13.4143 H   0  0  0  0  0  0  0  0  0  0  0  0
   -1.3632    0.9740   11.9633 H   0  0  0  0  0  0  0  0  0  0  0  0
   -0.1814    0.4331   13.9949 H   0  0  0  0  0  0  0  0  0  0  0  0
  1  2  1  0
  1 31  1  0
  1 32  1  0
  1 33  1  0
  2  3  1  0
  2 34  1  0
  3  4  2  0
  3  5  1  0
  5  6  2  0
  5 10  1  0
  6  7  1  0
  6 35  1  0
  7  8  2  0
  7 36  1  0
  8  9  1  0
  8 37  1  0
  9 10  2  0
  9 11  1  0
 10 38  1  0
 11 12  2  0
 11 30  1  0
 12 13  1  0
 12 39  1  0
 13 14  1  0
 13 17  1  0
 14 15  2  0
 14 40  1  0
 15 16  1  0
 15 41  1  0
 16 17  2  0
 17 18  1  0
 18 19  1  0
 18 30  2  0
 19 20  1  0
 19 42  1  0
 20 21  2  0
 20 29  1  0
 21 22  1  0
 21 43  1  0
 22 23  2  0
 22 44  1  0
 23 24  1  0
 23 26  1  0
 24 25  1  0
 25 45  1  0
 25 46  1  0
 25 47  1  0
 26 27  1  0
 26 29  2  0
 27 28  1  0
 28 48  1  0
 28 49  1  0
 28 50  1  0
 29 51  1  0
M  END
>  <s_m_entry_id>  (1) 
1004

>  <IC50[nM]>  (1) 
50.2

>  <s_m_Source_Path>  (1) 
/projects/mai/users/kmzp800_harry/pmx_colab/docking_jobs/syk

>  <s_m_Source_File>  (1) 
tnks2_lig.sdf

>  <i_m_Source_File_Index>  (1) 
17

>  <s_m_job_name>  (1) 
glide-dock_SP_tnks2_core_const

>  <r_i_docking_score>  (1) 
-7.12444358165735

>  <r_i_glide_gscore>  (1) 
-7.12444358165735

>  <r_i_glide_emodel>  (1) 
-51.4628532160437

>  <index_string>  (1) 
16:0:0

$$$$
