2:0:0
     RDKit          3D

 47 51  0  0  1  0  0  0  0  0999 V2000
    8.3438    4.8054   13.3567 C   0  0  0  0  0  0  0  0  0  0  0  0
    7.1551    4.4037   14.0089 O   0  0  0  0  0  0  0  0  0  0  0  0
    6.0297    4.2680   13.2295 C   0  0  0  0  0  0  0  0  0  0  0  0
    5.6836    5.1907   12.2179 C   0  0  0  0  0  0  0  0  0  0  0  0
    4.4586    5.0711   11.5348 C   0  0  0  0  0  0  0  0  0  0  0  0
    3.5791    4.0091   11.8200 C   0  0  0  0  0  0  0  0  0  0  0  0
    2.3589    3.9892   11.1180 N   0  0  0  0  0  0  0  0  0  0  0  0
    1.1405    3.3399   11.3818 C   0  0  0  0  0  0  0  0  0  0  0  0
    1.0635    2.4052   12.2841 N   0  0  0  0  0  0  0  0  0  0  0  0
   -0.1189    1.7386   12.4973 C   0  0  0  0  0  0  0  0  0  0  0  0
   -1.2677    2.0453   11.8033 C   0  0  0  0  0  0  0  0  0  0  0  0
   -1.1919    3.0223   10.8609 N   0  0  0  0  0  0  0  0  0  0  0  0
   -2.1416    3.5413    9.9996 C   0  0  0  0  0  0  0  0  0  0  0  0
   -1.5044    4.4855    9.2437 C   0  0  0  0  0  0  0  0  0  0  0  0
   -0.1701    4.5946    9.6106 N   0  0  0  0  0  0  0  0  0  0  0  0
    0.0109    3.7120   10.5947 C   0  0  0  0  0  0  0  0  0  0  0  0
   -0.0497    0.6299   13.4809 C   0  0  0  0  0  0  0  0  0  0  0  0
    0.9345    0.6177   14.5002 C   0  0  0  0  0  0  0  0  0  0  0  0
    1.0418   -0.4543   15.4060 C   0  0  0  0  0  0  0  0  0  0  0  0
    0.1444   -1.5252   15.2982 C   0  0  0  0  0  0  0  0  0  0  0  0
   -0.0334   -2.7035   15.9983 N   0  0  0  0  0  0  0  0  0  0  0  0
   -1.0657   -3.4557   15.5409 N   0  0  0  0  0  0  0  0  0  0  0  0
   -1.5752   -2.7812   14.5374 C   0  0  0  0  0  0  0  0  0  0  0  0
   -0.8763   -1.5505   14.3145 C   0  0  0  0  0  0  0  0  0  0  0  0
   -0.9539   -0.4585   13.4176 C   0  0  0  0  0  0  0  0  0  0  0  0
    3.9796    3.0314   12.7609 C   0  0  0  0  0  0  0  0  0  0  0  0
    5.1947    3.1588   13.4769 C   0  0  0  0  0  0  0  0  0  0  0  0
    5.6304    2.2329   14.4011 O   0  0  0  0  0  0  0  0  0  0  0  0
    5.1060    0.9152   14.3182 C   0  0  0  0  0  0  0  0  0  0  0  0
    9.1923    4.4093   13.9170 H   0  0  0  0  0  0  0  0  0  0  0  0
    8.4303    5.8890   13.3652 H   0  0  0  0  0  0  0  0  0  0  0  0
    8.4150    4.4100   12.3378 H   0  0  0  0  0  0  0  0  0  0  0  0
    6.3401    6.0039   11.9701 H   0  0  0  0  0  0  0  0  0  0  0  0
    4.1923    5.8187   10.8038 H   0  0  0  0  0  0  0  0  0  0  0  0
    2.2558    4.7171   10.4267 H   0  0  0  0  0  0  0  0  0  0  0  0
   -2.2183    1.5491   11.9332 H   0  0  0  0  0  0  0  0  0  0  0  0
   -3.1561    3.1760   10.0070 H   0  0  0  0  0  0  0  0  0  0  0  0
   -1.9087    5.1018    8.4527 H   0  0  0  0  0  0  0  0  0  0  0  0
    1.6289    1.4406   14.5915 H   0  0  0  0  0  0  0  0  0  0  0  0
    1.8035   -0.4536   16.1721 H   0  0  0  0  0  0  0  0  0  0  0  0
    0.5122   -3.0069   16.7965 H   0  0  0  0  0  0  0  0  0  0  0  0
   -2.4172   -3.1872   13.9992 H   0  0  0  0  0  0  0  0  0  0  0  0
   -1.7066   -0.4899   12.6464 H   0  0  0  0  0  0  0  0  0  0  0  0
    3.3579    2.1767   12.9528 H   0  0  0  0  0  0  0  0  0  0  0  0
    5.6615    0.2619   14.9891 H   0  0  0  0  0  0  0  0  0  0  0  0
    4.0584    0.8752   14.6165 H   0  0  0  0  0  0  0  0  0  0  0  0
    5.2000    0.5104   13.3106 H   0  0  0  0  0  0  0  0  0  0  0  0
  1  2  1  0
  1 30  1  0
  1 31  1  0
  1 32  1  0
  2  3  1  0
  3  4  2  0
  3 27  1  0
  4  5  1  0
  4 33  1  0
  5  6  2  0
  5 34  1  0
  6  7  1  0
  6 26  1  0
  7  8  1  0
  7 35  1  0
  8  9  2  0
  8 16  1  0
  9 10  1  0
 10 11  2  0
 10 17  1  0
 11 12  1  0
 11 36  1  0
 12 13  1  0
 12 16  1  0
 13 14  2  0
 13 37  1  0
 14 15  1  0
 14 38  1  0
 15 16  2  0
 17 18  2  0
 17 25  1  0
 18 19  1  0
 18 39  1  0
 19 20  2  0
 19 40  1  0
 20 21  1  0
 20 24  1  0
 21 22  1  0
 21 41  1  0
 22 23  2  0
 23 24  1  0
 23 42  1  0
 24 25  2  0
 25 43  1  0
 26 27  2  0
 26 44  1  0
 27 28  1  0
 28 29  1  0
 29 45  1  0
 29 46  1  0
 29 47  1  0
M  END
>  <s_m_entry_id>  (1) 
682

>  <IC50[nM]>  (1) 
10.4

>  <s_m_Source_Path>  (1) 
/projects/mai/users/kmzp800_harry/pmx_colab/docking_jobs/syk

>  <s_m_Source_File>  (1) 
tnks2_lig.sdf

>  <i_m_Source_File_Index>  (1) 
3

>  <s_m_job_name>  (1) 
glide-dock_SP_tnks2_no_const

>  <r_i_docking_score>  (1) 
-6.74690280560792

>  <r_i_glide_gscore>  (1) 
-6.74690280560792

>  <r_i_glide_emodel>  (1) 
-63.7167870880899

>  <index_string>  (1) 
2:0:0

$$$$
