8:0:0
     RDKit          3D

 48 51  0  0  1  0  0  0  0  0999 V2000
    5.7510   -0.5360   16.4500 C   0  0  0  0  0  0  0  0  0  0  0  0
    4.4620   -0.9300   16.2940 N   0  0  0  0  0  0  0  0  0  0  0  0
    4.0440   -0.2310   15.2250 C   0  0  0  0  0  0  0  0  0  0  0  0
    2.7790   -0.2700   14.6450 C   0  0  0  0  0  0  0  0  0  0  0  0
    1.7560   -1.1200   15.1830 N   0  0  0  0  0  0  0  0  0  0  0  0
    2.5580    0.5260   13.5560 N   0  0  0  0  0  0  0  0  0  0  0  0
    3.5280    1.3420   13.0360 C   0  0  0  0  0  0  0  0  0  0  0  0
    4.8000    1.3620   13.6430 C   0  0  0  0  0  0  0  0  0  0  0  0
    4.9920    0.5640   14.7210 N   0  0  0  0  0  0  0  0  0  0  0  0
    6.0880    0.3960   15.4720 C   0  0  0  0  0  0  0  0  0  0  0  0
    0.4140   -1.2710   14.7000 C   0  0  0  0  0  0  0  0  0  0  0  0
   -0.3370   -2.4300   14.9390 C   0  0  0  0  0  0  0  0  0  0  0  0
   -1.6400   -2.5390   14.4510 C   0  0  0  0  0  0  0  0  0  0  0  0
   -2.2150   -1.4890   13.7170 C   0  0  0  0  0  0  0  0  0  0  0  0
   -1.4690   -0.3250   13.4750 C   0  0  0  0  0  0  0  0  0  0  0  0
   -0.1580   -0.2260   13.9700 C   0  0  0  0  0  0  0  0  0  0  0  0
   -3.5200   -1.5810   13.2210 O   0  0  0  0  0  0  0  0  0  0  0  0
   -4.1760   -2.8230   13.0050 C   0  0  0  0  0  0  0  0  0  0  0  0
   -2.0480    0.7170   12.7420 O   0  0  0  0  0  0  0  0  0  0  0  0
   -1.5080    1.1860   11.5140 C   0  0  0  0  0  0  0  0  0  0  0  0
    3.2340    2.1820   11.8570 C   0  0  0  0  0  0  0  0  0  0  0  0
    4.2260    2.4120   10.8920 C   0  0  0  0  0  0  0  0  0  0  0  0
    3.9570    3.2040    9.7740 C   0  0  0  0  0  0  0  0  0  0  0  0
    2.6930    3.7750    9.6100 C   0  0  0  0  0  0  0  0  0  0  0  0
    1.6880    3.5570   10.5630 C   0  0  0  0  0  0  0  0  0  0  0  0
    1.9660    2.7600   11.6820 C   0  0  0  0  0  0  0  0  0  0  0  0
    0.3540    4.1570   10.3900 C   0  0  0  0  0  0  0  0  0  0  0  0
   -0.2240    4.7150   11.3600 O   0  0  0  0  0  0  0  0  0  0  0  0
   -0.2990    4.1120    9.1240 N   0  0  0  0  0  0  0  0  0  0  0  0
    6.4306   -0.8998   17.2347 H   0  0  0  0  0  0  0  0  0  0  0  0
    2.0135   -1.6833   16.0060 H   0  0  0  0  0  0  0  0  0  0  0  0
    5.6068    2.0017   13.2559 H   0  0  0  0  0  0  0  0  0  0  0  0
    7.0599    0.8945   15.3422 H   0  0  0  0  0  0  0  0  0  0  0  0
    0.1029   -3.2580   15.5142 H   0  0  0  0  0  0  0  0  0  0  0  0
   -2.2204   -3.4535   14.6426 H   0  0  0  0  0  0  0  0  0  0  0  0
    0.4261    0.6866   13.7803 H   0  0  0  0  0  0  0  0  0  0  0  0
   -4.4189   -3.2828   13.9743 H   0  0  0  0  0  0  0  0  0  0  0  0
   -5.1026   -2.6543   12.4367 H   0  0  0  0  0  0  0  0  0  0  0  0
   -3.5143   -3.4932   12.4367 H   0  0  0  0  0  0  0  0  0  0  0  0
   -0.6921    1.8946   11.7191 H   0  0  0  0  0  0  0  0  0  0  0  0
   -1.1180    0.3351   10.9362 H   0  0  0  0  0  0  0  0  0  0  0  0
   -2.2959    1.6913   10.9362 H   0  0  0  0  0  0  0  0  0  0  0  0
    5.2233    1.9650   11.0171 H   0  0  0  0  0  0  0  0  0  0  0  0
    4.7408    3.3783    9.0222 H   0  0  0  0  0  0  0  0  0  0  0  0
    2.4848    4.3991    8.7284 H   0  0  0  0  0  0  0  0  0  0  0  0
    1.1811    2.5850   12.4326 H   0  0  0  0  0  0  0  0  0  0  0  0
   -1.2318    4.5337    9.0104 H   0  0  0  0  0  0  0  0  0  0  0  0
    0.1619    3.6578    8.3226 H   0  0  0  0  0  0  0  0  0  0  0  0
  1  2  1  0
  1 10  2  0
  2  3  2  0
  3  4  1  0
  3  9  1  0
  4  5  1  0
  4  6  2  0
  5 11  1  0
  6  7  1  0
  7  8  2  0
  7 21  1  0
  8  9  1  0
  9 10  1  0
 11 12  2  0
 11 16  1  0
 12 13  1  0
 13 14  2  0
 14 15  1  0
 14 17  1  0
 15 16  2  0
 15 19  1  0
 17 18  1  0
 19 20  1  0
 21 22  2  0
 21 26  1  0
 22 23  1  0
 23 24  2  0
 24 25  1  0
 25 26  2  0
 25 27  1  0
 27 28  2  0
 27 29  1  0
  1 30  1  0
  5 31  1  0
  8 32  1  0
 10 33  1  0
 12 34  1  0
 13 35  1  0
 16 36  1  0
 18 37  1  0
 18 38  1  0
 18 39  1  0
 20 40  1  0
 20 41  1  0
 20 42  1  0
 22 43  1  0
 23 44  1  0
 24 45  1  0
 26 46  1  0
 29 47  1  0
 29 48  1  0
M  END
>  <s_m_entry_id>  (1) 
9

>  <MODEL>  (1) 
1

>  <REMARK>  (1) 
 VINA RESULT:    -9.632      0.000      0.000
 INTER + INTRA:         -12.954
 INTER:                 -12.448
 INTRA:                  -0.506
 UNBOUND:                -0.506
  Name = /scratch/kmzp800/tmpuc_ja5nu/tmpe7fqx7mc.pdb
  7 active torsions:
  status: ('A' for Active; 'I' for Inactive)
    1  A    between atoms: N2_5  and  C4_6
    2  A    between atoms: C7_9  and  O1_10
    3  A    between atoms: O1_10  and  C8_11
    4  A    between atoms: C9_12  and  O2_13
    5  A    between atoms: O2_13  and  C10_14
    6  A    between atoms: C12_17  and  C13_18
    7  A    between atoms: C17_22  and  C18_23
                            x       y       z     vdW  Elec       q    Type
                         _______ _______ _______ _____ _____    ______ ____

>  <TORSDO>  (1) 
F 5

>  <grid_id>  (1) 
syk-prepared

>  <grid_path>  (1) 
syk_vina.pdbqt

>  <grid_filename>  (1) 
syk_vina.pdbqt

>  <docking_score>  (1) 
-9.632

>  <compound_name>  (1) 
CHEMBL3265005

>  <index_string>  (1) 
8:0:0

>  <s_m_Source_Path>  (1) 
/projects/mai/users/kmzp800_harry/pmx_colab/docking_jobs/syk/vina_prep/output

>  <s_m_Source_File>  (1) 
ptp1b_docked_conformers.sdf

>  <i_m_Source_File_Index>  (1) 
9

$$$$
