26:0:0
     RDKit          3D

 27 29  0  0  1  0  0  0  0  0999 V2000
  -14.7710  -17.2630  -26.4840 N   0  0  0  0  0  0  0  0  0  0  0  0
  -15.0030  -15.8860  -26.5120 C   0  0  0  0  0  0  0  0  0  0  0  0
  -15.7750  -15.2830  -25.5080 C   0  0  0  0  0  0  0  0  0  0  0  0
  -15.3740  -13.1500  -26.5140 C   0  0  0  0  0  0  0  0  0  0  0  0
  -14.6220  -13.7350  -27.5240 C   0  0  0  0  0  0  0  0  0  0  0  0
  -15.9630  -13.9030  -25.5040 C   0  0  0  0  0  0  0  0  0  0  0  0
  -14.4490  -15.1160  -27.5460 C   0  0  0  0  0  0  0  0  0  0  0  0
  -16.4130  -16.1650  -24.4540 C   0  0  0  0  0  0  0  0  0  0  0  0
  -16.0640  -17.4720  -24.6110 N   0  0  0  0  0  0  0  0  0  0  0  0
  -15.2580  -18.0380  -25.5790 C   0  0  0  0  0  0  0  0  0  0  0  0
  -17.1890  -15.7990  -23.5700 O   0  0  0  0  0  0  0  0  0  0  0  0
  -15.0020  -19.4880  -25.5990 C   0  0  0  0  0  0  0  0  0  0  0  0
  -14.8870  -20.1390  -26.8360 C   0  0  0  0  0  0  0  0  0  0  0  0
  -14.8650  -20.2260  -24.4190 C   0  0  0  0  0  0  0  0  0  0  0  0
  -14.6350  -21.4950  -26.8940 C   0  0  0  0  0  0  0  0  0  0  0  0
  -14.5920  -21.5860  -24.4810 C   0  0  0  0  0  0  0  0  0  0  0  0
  -14.4770  -22.2290  -25.7210 C   0  0  0  0  0  0  0  0  0  0  0  0
  -15.5079  -12.0582  -26.5127 H   0  0  0  0  0  0  0  0  0  0  0  0
  -14.1644  -13.1091  -28.3043 H   0  0  0  0  0  0  0  0  0  0  0  0
  -16.5638  -13.4196  -24.7196 H   0  0  0  0  0  0  0  0  0  0  0  0
  -13.8871  -15.5960  -28.3608 H   0  0  0  0  0  0  0  0  0  0  0  0
  -16.4527  -18.1248  -23.9156 H   0  0  0  0  0  0  0  0  0  0  0  0
  -14.9985  -19.5644  -27.7674 H   0  0  0  0  0  0  0  0  0  0  0  0
  -14.9733  -19.7298  -23.4433 H   0  0  0  0  0  0  0  0  0  0  0  0
  -14.5588  -21.9973  -27.8696 H   0  0  0  0  0  0  0  0  0  0  0  0
  -14.4653  -22.1616  -23.5522 H   0  0  0  0  0  0  0  0  0  0  0  0
  -14.2632  -23.3070  -25.7675 H   0  0  0  0  0  0  0  0  0  0  0  0
  1 10  2  0
  1  2  1  0
  2  3  2  0
  2  7  1  0
  3  6  1  0
  3  8  1  0
  4  6  2  0
  4  5  1  0
  5  7  2  0
  8 11  2  0
  8  9  1  0
  9 10  1  0
 10 12  1  0
 12 14  1  0
 12 13  2  0
 13 15  1  0
 14 16  2  0
 15 17  2  0
 16 17  1  0
  4 18  1  0
  5 19  1  0
  6 20  1  0
  7 21  1  0
  9 22  1  0
 13 23  1  0
 14 24  1  0
 15 25  1  0
 16 26  1  0
 17 27  1  0
M  END
>  <s_m_entry_id>  (1) 
2354

>  <MODEL>  (1) 
1

>  <REMARK>  (1) 
 VINA RESULT:   -10.499      0.000      0.000
 INTER + INTRA:         -11.326
 INTER:                 -11.113
 INTRA:                  -0.213
 UNBOUND:                -0.213
  Name = 1a
  1 active torsions:
  status: ('A' for Active; 'I' for Inactive)
    1  A    between atoms: C_1  and  C_16
                            x       y       z     vdW  Elec       q    Type
                         _______ _______ _______ _____ _____    ______ ____

>  <TORSDO>  (1) 
F 1

>  <s_m_Source_Path>  (1) 
/projects/mai/users/kmzp800_harry/pmx_colab/docking_jobs/tnks2/vina_prep/output

>  <s_m_Source_File>  (1) 
tnks_naive_vina.sdf

>  <i_m_Source_File_Index>  (1) 
27

>  <index_string>  (1) 
26:0:0

$$$$
