12:0:0
     RDKit          3D

 50 54  0  0  1  0  0  0  0  0999 V2000
    5.5170   -0.7830   16.3260 C   0  0  0  0  0  0  0  0  0  0  0  0
    4.2440   -1.2450   16.2540 N   0  0  0  0  0  0  0  0  0  0  0  0
    3.6820   -0.4830   15.3010 C   0  0  0  0  0  0  0  0  0  0  0  0
    2.3710   -0.5540   14.8420 C   0  0  0  0  0  0  0  0  0  0  0  0
    1.4630   -1.5160   15.3940 N   0  0  0  0  0  0  0  0  0  0  0  0
    1.9940    0.3180   13.8580 N   0  0  0  0  0  0  0  0  0  0  0  0
    2.8630    1.2390   13.3280 C   0  0  0  0  0  0  0  0  0  0  0  0
    4.1850    1.2870   13.8130 C   0  0  0  0  0  0  0  0  0  0  0  0
    4.5290    0.4120   14.7870 N   0  0  0  0  0  0  0  0  0  0  0  0
    5.7020    0.2520   15.4120 C   0  0  0  0  0  0  0  0  0  0  0  0
    2.4140    2.1620   12.2660 C   0  0  0  0  0  0  0  0  0  0  0  0
    1.0300    2.4330   12.0830 C   0  0  0  0  0  0  0  0  0  0  0  0
    0.5870    3.3090   11.0760 C   0  0  0  0  0  0  0  0  0  0  0  0
    1.5610    3.8960   10.2720 C   0  0  0  0  0  0  0  0  0  0  0  0
    2.8900    3.6450   10.4380 C   0  0  0  0  0  0  0  0  0  0  0  0
    3.5540    4.3870    9.4800 C   0  0  0  0  0  0  0  0  0  0  0  0
    2.6090    5.0580    8.7710 N   0  0  0  0  0  0  0  0  0  0  0  0
    1.4100    4.7560    9.2560 N   0  0  0  0  0  0  0  0  0  0  0  0
    0.1630    5.2910    8.7410 C   0  0  0  0  0  0  0  0  0  0  0  0
    3.3620    2.7840   11.4240 C   0  0  0  0  0  0  0  0  0  0  0  0
    0.0880   -1.7280   15.0440 C   0  0  0  0  0  0  0  0  0  0  0  0
   -0.5230   -2.9200   15.4380 C   0  0  0  0  0  0  0  0  0  0  0  0
   -1.8590   -3.1700   15.1190 C   0  0  0  0  0  0  0  0  0  0  0  0
   -2.6060   -2.2250   14.3980 C   0  0  0  0  0  0  0  0  0  0  0  0
   -2.0010   -1.0240   13.9980 C   0  0  0  0  0  0  0  0  0  0  0  0
   -0.6550   -0.7820   14.3240 C   0  0  0  0  0  0  0  0  0  0  0  0
   -3.9460   -2.4590   14.0690 O   0  0  0  0  0  0  0  0  0  0  0  0
   -4.3390   -3.1920   12.9170 C   0  0  0  0  0  0  0  0  0  0  0  0
   -2.7550   -0.0900   13.2800 O   0  0  0  0  0  0  0  0  0  0  0  0
   -2.1650    0.9610   12.5290 C   0  0  0  0  0  0  0  0  0  0  0  0
    6.2903   -1.1690   17.0065 H   0  0  0  0  0  0  0  0  0  0  0  0
    1.8432   -2.1282   16.1299 H   0  0  0  0  0  0  0  0  0  0  0  0
    4.9119    2.0099   13.4143 H   0  0  0  0  0  0  0  0  0  0  0  0
    6.6261    0.8230   15.2387 H   0  0  0  0  0  0  0  0  0  0  0  0
    0.2930    1.9489   12.7407 H   0  0  0  0  0  0  0  0  0  0  0  0
   -0.4823    3.5214   10.9297 H   0  0  0  0  0  0  0  0  0  0  0  0
    4.6418    4.4269    9.3214 H   0  0  0  0  0  0  0  0  0  0  0  0
   -0.4902    5.5713    9.5805 H   0  0  0  0  0  0  0  0  0  0  0  0
    0.3712    6.1790    8.1261 H   0  0  0  0  0  0  0  0  0  0  0  0
   -0.3371    4.5282    8.1261 H   0  0  0  0  0  0  0  0  0  0  0  0
    4.4388    2.5940   11.5438 H   0  0  0  0  0  0  0  0  0  0  0  0
    0.0524   -3.6675   16.0038 H   0  0  0  0  0  0  0  0  0  0  0  0
   -2.3291   -4.1131   15.4345 H   0  0  0  0  0  0  0  0  0  0  0  0
   -0.1799    0.1594   14.0109 H   0  0  0  0  0  0  0  0  0  0  0  0
   -4.8377   -4.1222   13.2268 H   0  0  0  0  0  0  0  0  0  0  0  0
   -5.0333   -2.5862   12.3162 H   0  0  0  0  0  0  0  0  0  0  0  0
   -3.4502   -3.4350   12.3162 H   0  0  0  0  0  0  0  0  0  0  0  0
   -1.7442    1.7106   13.2153 H   0  0  0  0  0  0  0  0  0  0  0  0
   -1.3637    0.5536   11.8950 H   0  0  0  0  0  0  0  0  0  0  0  0
   -2.9301    1.4329   11.8950 H   0  0  0  0  0  0  0  0  0  0  0  0
  1  2  1  0
  1 10  2  0
  2  3  2  0
  3  4  1  0
  3  9  1  0
  4  5  1  0
  4  6  2  0
  5 21  1  0
  6  7  1  0
  7  8  2  0
  7 11  1  0
  8  9  1  0
  9 10  1  0
 11 12  2  0
 11 20  1  0
 12 13  1  0
 13 14  2  0
 14 15  1  0
 14 18  1  0
 15 20  2  0
 15 16  1  0
 16 17  2  0
 17 18  1  0
 18 19  1  0
 21 22  2  0
 21 26  1  0
 22 23  1  0
 23 24  2  0
 24 25  1  0
 24 27  1  0
 25 26  2  0
 25 29  1  0
 27 28  1  0
 29 30  1  0
  1 31  1  0
  5 32  1  0
  8 33  1  0
 10 34  1  0
 12 35  1  0
 13 36  1  0
 16 37  1  0
 19 38  1  0
 19 39  1  0
 19 40  1  0
 20 41  1  0
 22 42  1  0
 23 43  1  0
 26 44  1  0
 28 45  1  0
 28 46  1  0
 28 47  1  0
 30 48  1  0
 30 49  1  0
 30 50  1  0
M  END
>  <s_m_entry_id>  (1) 
539

>  <MODEL>  (1) 
3

>  <REMARK>  (1) 
 VINA RESULT:    -9.506      2.308      6.723
 INTER + INTRA:         -11.145
 INTER:                 -10.784
 INTRA:                  -0.361
 UNBOUND:                 0.584
  Name = /scratch/kmzp800/tmph8ya4jgu/tmpfdcp0i3m.pdb
  7 active torsions:
  status: ('A' for Active; 'I' for Inactive)
    1  A    between atoms: N2_5  and  C4_6
    2  A    between atoms: C7_9  and  O1_10
    3  A    between atoms: O1_10  and  C8_11
    4  A    between atoms: C9_12  and  O2_13
    5  A    between atoms: O2_13  and  C10_14
    6  A    between atoms: C12_17  and  C13_18
    7  A    between atoms: N5_25  and  C19_26
                            x       y       z     vdW  Elec       q    Type
                         _______ _______ _______ _____ _____    ______ ____

>  <TORSDO>  (1) 
F 4

>  <grid_id>  (1) 
syk-prepared

>  <grid_path>  (1) 
syk_vina.pdbqt

>  <grid_filename>  (1) 
syk_vina.pdbqt

>  <docking_score>  (1) 
-9.506

>  <compound_name>  (1) 
CHEMBL3265023

>  <index_string>  (1) 
12:0:0

>  <s_m_Source_Path>  (1) 
/projects/mai/users/kmzp800_harry/pmx_colab/docking_jobs/syk/vina_prep/output

>  <s_m_Source_File>  (1) 
ptp1b_docked_conformers.sdf

>  <i_m_Source_File_Index>  (1) 
363

$$$$
