27:0:0
     RDKit          3D

 46 49  0  0  1  0  0  0  0  0999 V2000
   33.8920   35.4800   19.3990 C   0  0  0  0  0  0  0  0  0  0  0  0
   33.7230   36.6840   20.0920 C   0  0  0  0  0  0  0  0  0  0  0  0
   33.2990   36.6660   21.4150 C   0  0  0  0  0  0  0  0  0  0  0  0
   33.1280   37.8450   22.1340 C   0  0  0  0  0  0  0  0  0  0  0  0
   32.7140   37.7910   23.4260 N   0  0  0  0  0  0  0  0  0  0  0  0
   32.4600   36.6000   24.0360 C   0  0  0  0  0  0  0  0  0  0  0  0
   32.0230   36.5530   25.3990 N   0  0  0  0  0  0  0  0  0  0  0  0
   32.6220   35.4400   23.3470 N   0  0  0  0  0  0  0  0  0  0  0  0
   33.0360   35.4390   22.0480 C   0  0  0  0  0  0  0  0  0  0  0  0
   33.1930   34.2670   21.3590 N   0  0  0  0  0  0  0  0  0  0  0  0
   32.9130   32.9950   22.0210 C   0  0  0  0  0  0  0  0  0  0  0  0
   33.6110   34.2700   20.0530 C   0  0  0  0  0  0  0  0  0  0  0  0
   33.7480   33.1850   19.4250 O   0  0  0  0  0  0  0  0  0  0  0  0
   31.8120   37.7240   26.2460 C   0  0  0  0  0  0  0  0  0  0  0  0
   33.1360   38.4300   26.5470 C   0  0  0  0  0  0  0  0  0  0  0  0
   32.8910   39.5250   27.5840 C   0  0  0  0  0  0  0  0  0  0  0  0
   32.3640   38.9600   28.7610 O   0  0  0  0  0  0  0  0  0  0  0  0
   31.0500   38.5580   28.4630 C   0  0  0  0  0  0  0  0  0  0  0  0
   31.0730   37.3470   27.5300 C   0  0  0  0  0  0  0  0  0  0  0  0
   34.2960   35.4610   18.0550 O   0  0  0  0  0  0  0  0  0  0  0  0
   38.2090   36.0290   16.6190 C   0  0  0  0  0  0  0  0  0  0  0  0
   37.1320   35.9310   15.7350 C   0  0  0  0  0  0  0  0  0  0  0  0
   35.8380   35.7420   16.2280 C   0  0  0  0  0  0  0  0  0  0  0  0
   35.6090   35.6620   17.6060 C   0  0  0  0  0  0  0  0  0  0  0  0
   36.7020   35.7400   18.4940 C   0  0  0  0  0  0  0  0  0  0  0  0
   36.5300   35.5810   19.8290 F   0  0  0  0  0  0  0  0  0  0  0  0
   37.9950   35.9280   17.9950 C   0  0  0  0  0  0  0  0  0  0  0  0
   33.9253   37.6420   19.5907 H   0  0  0  0  0  0  0  0  0  0  0  0
   33.3273   38.8164   21.6578 H   0  0  0  0  0  0  0  0  0  0  0  0
   31.8446   35.6264   25.8118 H   0  0  0  0  0  0  0  0  0  0  0  0
   32.9438   33.1347   23.1117 H   0  0  0  0  0  0  0  0  0  0  0  0
   31.9151   32.6394   21.7249 H   0  0  0  0  0  0  0  0  0  0  0  0
   33.6694   32.2532   21.7249 H   0  0  0  0  0  0  0  0  0  0  0  0
   31.1767   38.4328   25.6946 H   0  0  0  0  0  0  0  0  0  0  0  0
   33.8602   37.7027   26.9426 H   0  0  0  0  0  0  0  0  0  0  0  0
   33.5382   38.8747   25.6248 H   0  0  0  0  0  0  0  0  0  0  0  0
   33.8415   40.0283   27.8147 H   0  0  0  0  0  0  0  0  0  0  0  0
   32.1735   40.2538   27.1790 H   0  0  0  0  0  0  0  0  0  0  0  0
   30.5307   38.2901   29.3950 H   0  0  0  0  0  0  0  0  0  0  0  0
   30.5225   39.3862   27.9671 H   0  0  0  0  0  0  0  0  0  0  0  0
   30.0425   37.0476   27.2884 H   0  0  0  0  0  0  0  0  0  0  0  0
   31.5860   36.5076   28.0221 H   0  0  0  0  0  0  0  0  0  0  0  0
   39.2262   36.1858   16.2309 H   0  0  0  0  0  0  0  0  0  0  0  0
   37.3023   36.0026   14.6506 H   0  0  0  0  0  0  0  0  0  0  0  0
   34.9939   35.6556   15.5280 H   0  0  0  0  0  0  0  0  0  0  0  0
   38.8459   35.9965   18.6887 H   0  0  0  0  0  0  0  0  0  0  0  0
  1 12  1  0
  1  2  2  0
  1 20  1  0
  2  3  1  0
  3  9  2  0
  3  4  1  0
  4  5  2  0
  5  6  1  0
  6  7  1  0
  6  8  2  0
  7 14  1  0
  8  9  1  0
  9 10  1  0
 10 11  1  0
 10 12  1  0
 12 13  2  0
 14 15  1  0
 14 19  1  0
 15 16  1  0
 16 17  1  0
 17 18  1  0
 18 19  1  0
 20 24  1  0
 21 27  2  0
 21 22  1  0
 22 23  2  0
 23 24  1  0
 24 25  2  0
 25 26  1  0
 25 27  1  0
  2 28  1  0
  4 29  1  0
  7 30  1  0
 11 31  1  0
 11 32  1  0
 11 33  1  0
 14 34  1  0
 15 35  1  0
 15 36  1  0
 16 37  1  0
 16 38  1  0
 18 39  1  0
 18 40  1  0
 19 41  1  0
 19 42  1  0
 21 43  1  0
 22 44  1  0
 23 45  1  0
 27 46  1  0
M  END
>  <s_m_entry_id>  (1) 
77

>  <MODEL>  (1) 
2

>  <REMARK>  (1) 
 VINA RESULT:    -8.772      1.735      2.150
 INTER + INTRA:          -9.684
 INTER:                  -9.789
 INTRA:                   0.105
 UNBOUND:                 0.626
  Name = /scratch/kmzp800/tmp5_tl570l/tmpgip4k33d.pdb
  4 active torsions:
  status: ('A' for Active; 'I' for Inactive)
    1  A    between atoms: C4_4  and  O1_5
    2  A    between atoms: O1_5  and  C5_6
    3  A    between atoms: N2_12  and  C10_13
    4  A    between atoms: N4_21  and  C16_22
                            x       y       z     vdW  Elec       q    Type
                         _______ _______ _______ _____ _____    ______ ____

>  <TORSDO>  (1) 
F 3

>  <grid_id>  (1) 
p38-prepared

>  <grid_path>  (1) 
/projects/mai/users/kmzp800_harry/pmx_colab/docking_jobs/p38/vina_docking/input_files/p38_vina.pdbqt

>  <grid_filename>  (1) 
p38_vina.pdbqt

>  <docking_score>  (1) 
-8.772

>  <compound_name>  (1) 
lig_p38a_2g

>  <index_string>  (1) 
27:0:0

$$$$
