1:0:0
     RDKit          3D

 63 66  0  0  1  0  0  0  0  0999 V2000
   41.3829   12.8324   13.7680 C   0  0  0  0  0  0  0  0  0  0  0  0
   42.1573   13.5502   14.8388 C   0  0  0  0  0  0  0  0  0  0  0  0
   42.5257   14.9202   14.7435 C   0  0  0  0  0  0  0  0  0  0  0  0
   42.1285   15.7445   13.7467 O   0  0  0  0  0  0  0  0  0  0  0  0
   40.7671   16.1410   13.8483 C   0  0  0  0  0  0  0  0  0  0  0  0
   40.3661   17.0643   12.6943 C   0  0  0  0  0  0  0  0  0  0  0  0
   39.1878   17.4872   12.6744 O   0  0  0  0  0  0  0  0  0  0  0  0
   41.2241   17.3118   11.8171 O   0  0  0  0  0  0  0  0  0  0  0  0
   43.3553   15.3037   15.7650 C   0  0  0  0  0  0  0  0  0  0  0  0
   44.0160   16.5789   16.0512 C   0  0  0  0  0  0  0  0  0  0  0  0
   43.8449   17.5395   15.2690 O   0  0  0  0  0  0  0  0  0  0  0  0
   44.7444   16.6858   17.0579 O   0  0  0  0  0  0  0  0  0  0  0  0
   43.6058   14.0117   16.9139 S   0  0  0  0  0  0  0  0  0  0  0  0
   42.5986   12.9463   15.9877 C   0  0  0  0  0  0  0  0  0  0  0  0
   42.3373   11.5978   16.4800 C   0  0  0  0  0  0  0  0  0  0  0  0
   43.3835   10.7829   16.9625 C   0  0  0  0  0  0  0  0  0  0  0  0
   43.1213    9.4655   17.3793 C   0  0  0  0  0  0  0  0  0  0  0  0
   41.8169    8.9412   17.2953 C   0  0  0  0  0  0  0  0  0  0  0  0
   40.7560    9.7456   16.8235 C   0  0  0  0  0  0  0  0  0  0  0  0
   39.4625    9.2534   16.5804 N   0  0  0  0  0  0  0  0  0  0  0  0
   39.2734    7.8275   16.3080 C   0  0  0  0  0  0  0  0  0  0  0  0
   37.7780    7.4959   16.1673 C   0  0  0  0  0  0  0  0  0  0  0  0
   37.5575    6.0005   15.8752 C   0  0  0  0  0  0  0  0  0  0  0  0
   38.3247    5.5881   14.6871 N   0  0  0  0  0  0  0  0  0  0  0  0
   37.5318    5.5168   13.1419 S   0  0  0  0  0  0  0  0  0  0  0  0
   36.4897    6.5546   13.1204 O   0  0  0  0  0  0  0  0  0  0  0  0
   38.5649    5.4892   12.0966 O   0  0  0  0  0  0  0  0  0  0  0  0
   36.7176    3.8614   13.2203 C   0  0  0  0  0  0  0  0  0  0  0  0
   37.1315    3.0016   12.0364 C   0  0  0  0  0  0  0  0  0  0  0  0
   36.4535    3.1187   10.8051 C   0  0  0  0  0  0  0  0  0  0  0  0
   36.8251    2.3083    9.7140 C   0  0  0  0  0  0  0  0  0  0  0  0
   37.8769    1.3798    9.8525 C   0  0  0  0  0  0  0  0  0  0  0  0
   38.5658    1.2701   11.0746 C   0  0  0  0  0  0  0  0  0  0  0  0
   38.1930    2.0788   12.1661 C   0  0  0  0  0  0  0  0  0  0  0  0
   39.7655    5.8790   14.7612 C   0  0  0  0  0  0  0  0  0  0  0  0
   39.9940    7.3754   15.0194 C   0  0  0  0  0  0  0  0  0  0  0  0
   41.0263   11.0737   16.4442 C   0  0  0  0  0  0  0  0  0  0  0  0
   40.3602   12.6125   14.0842 H   0  0  0  0  0  0  0  0  0  0  0  0
   41.3155   13.4252   12.8524 H   0  0  0  0  0  0  0  0  0  0  0  0
   41.8660   11.8885   13.4992 H   0  0  0  0  0  0  0  0  0  0  0  0
   40.5920   16.6539   14.7957 H   0  0  0  0  0  0  0  0  0  0  0  0
   40.1429   15.2560   13.8126 H   0  0  0  0  0  0  0  0  0  0  0  0
   44.3933   11.1664   17.0006 H   0  0  0  0  0  0  0  0  0  0  0  0
   43.9253    8.8455   17.7487 H   0  0  0  0  0  0  0  0  0  0  0  0
   41.6505    7.9169   17.5924 H   0  0  0  0  0  0  0  0  0  0  0  0
   38.9205    9.8566   15.9778 H   0  0  0  0  0  0  0  0  0  0  0  0
   39.6587    7.2611   17.1577 H   0  0  0  0  0  0  0  0  0  0  0  0
   37.2502    7.7750   17.0786 H   0  0  0  0  0  0  0  0  0  0  0  0
   37.3411    8.0888   15.3650 H   0  0  0  0  0  0  0  0  0  0  0  0
   37.8823    5.4071   16.7327 H   0  0  0  0  0  0  0  0  0  0  0  0
   36.5000    5.7798   15.7234 H   0  0  0  0  0  0  0  0  0  0  0  0
   37.0008    3.3859   14.1594 H   0  0  0  0  0  0  0  0  0  0  0  0
   35.6385    4.0108   13.2433 H   0  0  0  0  0  0  0  0  0  0  0  0
   35.6409    3.8218   10.6959 H   0  0  0  0  0  0  0  0  0  0  0  0
   36.3018    2.3911    8.7735 H   0  0  0  0  0  0  0  0  0  0  0  0
   38.1575    0.7453    9.0256 H   0  0  0  0  0  0  0  0  0  0  0  0
   39.3680    0.5521   11.1734 H   0  0  0  0  0  0  0  0  0  0  0  0
   38.7175    1.9833   13.1045 H   0  0  0  0  0  0  0  0  0  0  0  0
   40.1978    5.2983   15.5767 H   0  0  0  0  0  0  0  0  0  0  0  0
   40.2749    5.5585   13.8527 H   0  0  0  0  0  0  0  0  0  0  0  0
   39.6388    7.9558   14.1668 H   0  0  0  0  0  0  0  0  0  0  0  0
   41.0664    7.5513   15.0889 H   0  0  0  0  0  0  0  0  0  0  0  0
   40.2182   11.6898   16.0779 H   0  0  0  0  0  0  0  0  0  0  0  0
  1  2  1  0
  1 38  1  0
  1 39  1  0
  1 40  1  0
  2  3  1  0
  2 14  2  0
  3  4  1  0
  3  9  2  0
  4  5  1  0
  5  6  1  0
  5 41  1  0
  5 42  1  0
  6  7  2  0
  6  8  1  0
  9 10  1  0
  9 13  1  0
 10 11  2  0
 10 12  1  0
 13 14  1  0
 14 15  1  0
 15 16  2  0
 15 37  1  0
 16 17  1  0
 16 43  1  0
 17 18  2  0
 17 44  1  0
 18 19  1  0
 18 45  1  0
 19 20  1  0
 19 37  2  0
 20 21  1  0
 20 46  1  0
 21 22  1  0
 21 36  1  0
 21 47  1  0
 22 23  1  0
 22 48  1  0
 22 49  1  0
 23 24  1  0
 23 50  1  0
 23 51  1  0
 24 25  1  0
 24 35  1  0
 25 26  2  0
 25 27  2  0
 25 28  1  0
 28 29  1  0
 28 52  1  0
 28 53  1  0
 29 30  2  0
 29 34  1  0
 30 31  1  0
 30 54  1  0
 31 32  2  0
 31 55  1  0
 32 33  1  0
 32 56  1  0
 33 34  2  0
 33 57  1  0
 34 58  1  0
 35 36  1  0
 35 59  1  0
 35 60  1  0
 36 61  1  0
 36 62  1  0
 37 63  1  0
M  CHG  2   8  -1  12  -1
M  END
>  <s_m_entry_id>  (1) 
518

>  <s_m_Source_Path>  (1) 
/projects/mai/users/kmzp800_harry/pmx_colab/docking_jobs/ptp1b/glide-dock_SP_ptp1b_mcs_2

>  <s_m_Source_File>  (1) 
glide-dock_SP_ptp1b_mcs_2_pv.maegz

>  <i_m_Source_File_Index>  (1) 
3

>  <r_i_docking_score>  (1) 
-7.52066552010877

>  <r_i_glide_gscore>  (1) 
-7.52066552010877

>  <r_i_glide_emodel>  (1) 
-110.433036285663

>  <index_string>  (1) 
1:0:0

$$$$
