22:0:0
     RDKit          3D

 37 39  0  0  1  0  0  0  0  0999 V2000
  -14.5510  -14.7380  -27.5390 C   0  0  0  0  0  0  0  0  0  0  0  0
  -14.9660  -15.6100  -26.5310 C   0  0  0  0  0  0  0  0  0  0  0  0
  -14.7400  -13.3620  -27.3850 C   0  0  0  0  0  0  0  0  0  0  0  0
  -15.6280  -15.1140  -25.4040 C   0  0  0  0  0  0  0  0  0  0  0  0
  -14.6880  -16.9800  -26.6570 N   0  0  0  0  0  0  0  0  0  0  0  0
  -15.3650  -12.8680  -26.2380 C   0  0  0  0  0  0  0  0  0  0  0  0
  -15.8160  -13.7440  -25.2480 C   0  0  0  0  0  0  0  0  0  0  0  0
  -16.1130  -16.1020  -24.3650 C   0  0  0  0  0  0  0  0  0  0  0  0
  -15.6940  -17.3610  -24.6360 N   0  0  0  0  0  0  0  0  0  0  0  0
  -16.8320  -15.8620  -23.3970 O   0  0  0  0  0  0  0  0  0  0  0  0
  -15.0100  -17.8320  -25.7380 C   0  0  0  0  0  0  0  0  0  0  0  0
  -16.4110  -13.2670  -24.1390 F   0  0  0  0  0  0  0  0  0  0  0  0
  -14.7280  -19.2780  -25.8300 C   0  0  0  0  0  0  0  0  0  0  0  0
  -15.0190  -19.9650  -27.0150 C   0  0  0  0  0  0  0  0  0  0  0  0
  -14.7340  -21.3170  -27.1320 C   0  0  0  0  0  0  0  0  0  0  0  0
  -14.1570  -22.0090  -26.0700 C   0  0  0  0  0  0  0  0  0  0  0  0
  -13.8830  -21.3340  -24.8770 C   0  0  0  0  0  0  0  0  0  0  0  0
  -14.1700  -19.9830  -24.7530 C   0  0  0  0  0  0  0  0  0  0  0  0
  -13.7140  -23.4630  -26.2320 C   0  0  0  0  0  0  0  0  0  0  0  0
  -12.7780  -23.6620  -27.4230 C   0  0  0  0  0  0  0  0  0  0  0  0
  -14.9650  -24.3340  -26.2350 C   0  0  0  0  0  0  0  0  0  0  0  0
  -12.9370  -23.9660  -25.1810 O   0  0  0  0  0  0  0  0  0  0  0  0
  -14.0774  -15.1322  -28.4502 H   0  0  0  0  0  0  0  0  0  0  0  0
  -14.3967  -12.6684  -28.1667 H   0  0  0  0  0  0  0  0  0  0  0  0
  -15.5028  -11.7838  -26.1136 H   0  0  0  0  0  0  0  0  0  0  0  0
  -15.9172  -18.0659  -23.9189 H   0  0  0  0  0  0  0  0  0  0  0  0
  -15.4769  -19.4284  -27.8590 H   0  0  0  0  0  0  0  0  0  0  0  0
  -14.9649  -21.8457  -28.0686 H   0  0  0  0  0  0  0  0  0  0  0  0
  -13.4369  -21.8779  -24.0313 H   0  0  0  0  0  0  0  0  0  0  0  0
  -13.9595  -19.4624  -23.8071 H   0  0  0  0  0  0  0  0  0  0  0  0
  -11.7626  -23.8779  -27.0593 H   0  0  0  0  0  0  0  0  0  0  0  0
  -13.1355  -24.5042  -28.0336 H   0  0  0  0  0  0  0  0  0  0  0  0
  -12.7620  -22.7472  -28.0336 H   0  0  0  0  0  0  0  0  0  0  0  0
  -15.2676  -24.5447  -25.1986 H   0  0  0  0  0  0  0  0  0  0  0  0
  -15.7783  -23.8058  -26.7543 H   0  0  0  0  0  0  0  0  0  0  0  0
  -14.7519  -25.2800  -26.7543 H   0  0  0  0  0  0  0  0  0  0  0  0
  -13.3419  -23.7039  -24.3165 H   0  0  0  0  0  0  0  0  0  0  0  0
  1  3  2  0
  1  2  1  0
  2  4  2  0
  2  5  1  0
  3  6  1  0
  4  7  1  0
  4  8  1  0
  5 11  2  0
  6  7  2  0
  7 12  1  0
  8 10  2  0
  8  9  1  0
  9 11  1  0
 11 13  1  0
 13 18  1  0
 13 14  2  0
 14 15  1  0
 15 16  2  0
 16 17  1  0
 16 19  1  0
 17 18  2  0
 19 22  1  0
 19 20  1  0
 19 21  1  0
  1 23  1  0
  3 24  1  0
  6 25  1  0
  9 26  1  0
 14 27  1  0
 15 28  1  0
 17 29  1  0
 18 30  1  0
 20 31  1  0
 20 32  1  0
 20 33  1  0
 21 34  1  0
 21 35  1  0
 21 36  1  0
 22 37  1  0
M  END
>  <s_m_entry_id>  (1) 
2350

>  <MODEL>  (1) 
1

>  <REMARK>  (1) 
 VINA RESULT:   -11.067      0.000      0.000
 INTER + INTRA:         -13.119
 INTER:                 -12.685
 INTRA:                  -0.434
 UNBOUND:                -0.434
  Name = 5b
  5 active torsions:
  status: ('A' for Active; 'I' for Inactive)
    1  A    between atoms: C_11  and  C_12
    2  A    between atoms: C_15  and  C_18
    3  A    between atoms: C_18  and  O_19
    4  A    between atoms: C_18  and  C_20
    5  A    between atoms: C_18  and  C_21
                            x       y       z     vdW  Elec       q    Type
                         _______ _______ _______ _____ _____    ______ ____

>  <TORSDO>  (1) 
F 3

>  <s_m_Source_Path>  (1) 
/projects/mai/users/kmzp800_harry/pmx_colab/docking_jobs/tnks2/vina_prep/output

>  <s_m_Source_File>  (1) 
tnks_naive_vina.sdf

>  <i_m_Source_File_Index>  (1) 
23

>  <index_string>  (1) 
22:0:0

$$$$
