26:0:0
     RDKit          3D

 58 61  0  0  1  0  0  0  0  0999 V2000
   33.4270   35.7770   20.2810 C   0  0  0  0  0  0  0  0  0  0  0  0
   33.1850   34.5900   20.9820 C   0  0  0  0  0  0  0  0  0  0  0  0
   32.8260   34.6340   22.3230 C   0  0  0  0  0  0  0  0  0  0  0  0
   32.5710   33.4700   23.0410 C   0  0  0  0  0  0  0  0  0  0  0  0
   32.2200   33.5500   24.3510 N   0  0  0  0  0  0  0  0  0  0  0  0
   32.1160   34.7550   24.9780 C   0  0  0  0  0  0  0  0  0  0  0  0
   31.7400   34.8320   26.3540 N   0  0  0  0  0  0  0  0  0  0  0  0
   32.3660   35.8990   24.2910 N   0  0  0  0  0  0  0  0  0  0  0  0
   32.7150   35.8740   22.9740 C   0  0  0  0  0  0  0  0  0  0  0  0
   32.9510   37.0340   22.2860 N   0  0  0  0  0  0  0  0  0  0  0  0
   33.3100   37.0010   20.9620 C   0  0  0  0  0  0  0  0  0  0  0  0
   33.5390   38.0740   20.3380 O   0  0  0  0  0  0  0  0  0  0  0  0
   31.3700   33.6620   27.1430 C   0  0  0  0  0  0  0  0  0  0  0  0
   32.6080   33.1000   27.8450 C   0  0  0  0  0  0  0  0  0  0  0  0
   32.9920   33.9980   29.0250 C   0  0  0  0  0  0  0  0  0  0  0  0
   31.9230   34.0730   29.9370 O   0  0  0  0  0  0  0  0  0  0  0  0
   30.9160   34.8320   29.3140 C   0  0  0  0  0  0  0  0  0  0  0  0
   30.2930   34.0300   28.1690 C   0  0  0  0  0  0  0  0  0  0  0  0
   33.8120   35.7840   18.9280 O   0  0  0  0  0  0  0  0  0  0  0  0
   37.5340   35.9830   18.6970 C   0  0  0  0  0  0  0  0  0  0  0  0
   36.2470   35.9830   19.2430 C   0  0  0  0  0  0  0  0  0  0  0  0
   35.1220   35.8110   18.4190 C   0  0  0  0  0  0  0  0  0  0  0  0
   35.3090   35.6270   17.0410 C   0  0  0  0  0  0  0  0  0  0  0  0
   34.2410   35.4480   16.2250 F   0  0  0  0  0  0  0  0  0  0  0  0
   36.5970   35.6280   16.4960 C   0  0  0  0  0  0  0  0  0  0  0  0
   37.7080   35.8080   17.3230 C   0  0  0  0  0  0  0  0  0  0  0  0
   38.9550   35.8090   16.7930 F   0  0  0  0  0  0  0  0  0  0  0  0
   32.8100   38.3230   22.9680 C   0  0  0  0  0  0  0  0  0  0  0  0
   34.1040   38.7080   23.6770 C   0  0  0  0  0  0  0  0  0  0  0  0
   33.8380   39.1890   25.0960 C   0  0  0  0  0  0  0  0  0  0  0  0
   34.4950   38.0460   26.2990 S   0  0  0  0  0  0  0  0  0  0  0  0
   33.3630   37.4150   27.0610 O   0  0  0  0  0  0  0  0  0  0  0  0
   35.2660   36.9750   25.5820 O   0  0  0  0  0  0  0  0  0  0  0  0
   35.5810   38.8720   27.4400 C   0  0  0  0  0  0  0  0  0  0  0  0
   33.2793   33.6209   20.4702 H   0  0  0  0  0  0  0  0  0  0  0  0
   32.6532   32.4890   22.5501 H   0  0  0  0  0  0  0  0  0  0  0  0
   31.7297   35.7556   26.8098 H   0  0  0  0  0  0  0  0  0  0  0  0
   30.9596   32.8923   26.4729 H   0  0  0  0  0  0  0  0  0  0  0  0
   32.3896   32.0869   28.2138 H   0  0  0  0  0  0  0  0  0  0  0  0
   33.4438   33.0640   27.1308 H   0  0  0  0  0  0  0  0  0  0  0  0
   33.8742   33.5785   29.5307 H   0  0  0  0  0  0  0  0  0  0  0  0
   33.2220   35.0071   28.6525 H   0  0  0  0  0  0  0  0  0  0  0  0
   30.1380   35.0806   30.0508 H   0  0  0  0  0  0  0  0  0  0  0  0
   31.3557   35.7565   28.9115 H   0  0  0  0  0  0  0  0  0  0  0  0
   29.5156   34.6357   27.6803 H   0  0  0  0  0  0  0  0  0  0  0  0
   29.8478   33.1087   28.5727 H   0  0  0  0  0  0  0  0  0  0  0  0
   38.4088   36.1208   19.3495 H   0  0  0  0  0  0  0  0  0  0  0  0
   36.1140   36.1188   20.3265 H   0  0  0  0  0  0  0  0  0  0  0  0
   36.7353   35.4867   15.4139 H   0  0  0  0  0  0  0  0  0  0  0  0
   32.5612   39.0971   22.2271 H   0  0  0  0  0  0  0  0  0  0  0  0
   32.0101   38.2380   23.7183 H   0  0  0  0  0  0  0  0  0  0  0  0
   34.7661   37.8304   23.7148 H   0  0  0  0  0  0  0  0  0  0  0  0
   34.5751   39.5286   23.1160 H   0  0  0  0  0  0  0  0  0  0  0  0
   34.3134   40.1709   25.2370 H   0  0  0  0  0  0  0  0  0  0  0  0
   32.7500   39.2603   25.2413 H   0  0  0  0  0  0  0  0  0  0  0  0
   35.2753   38.6395   28.4708 H   0  0  0  0  0  0  0  0  0  0  0  0
   36.6134   38.5288   27.2774 H   0  0  0  0  0  0  0  0  0  0  0  0
   35.5259   39.9585   27.2774 H   0  0  0  0  0  0  0  0  0  0  0  0
  1 11  1  0
  1  2  2  0
  1 19  1  0
  2  3  1  0
  2 35  1  0
  3  9  2  0
  3  4  1  0
  4  5  2  0
  4 36  1  0
  5  6  1  0
  6  7  1  0
  6  8  2  0
  7 13  1  0
  7 37  1  0
  8  9  1  0
  9 10  1  0
 10 28  1  0
 10 11  1  0
 11 12  2  0
 13 14  1  0
 13 18  1  0
 13 38  1  0
 14 15  1  0
 14 39  1  0
 14 40  1  0
 15 16  1  0
 15 41  1  0
 15 42  1  0
 16 17  1  0
 17 18  1  0
 17 43  1  0
 17 44  1  0
 18 45  1  0
 18 46  1  0
 19 22  1  0
 20 21  2  0
 20 26  1  0
 20 47  1  0
 21 22  1  0
 21 48  1  0
 22 23  2  0
 23 24  1  0
 23 25  1  0
 25 26  2  0
 25 49  1  0
 26 27  1  0
 28 29  1  0
 28 50  1  0
 28 51  1  0
 29 30  1  0
 29 52  1  0
 29 53  1  0
 30 31  1  0
 30 54  1  0
 30 55  1  0
 31 32  2  0
 31 34  1  0
 31 33  2  0
 34 56  1  0
 34 57  1  0
 34 58  1  0
M  END
>  <s_m_entry_id>  (1) 
1381

>  <MODEL>  (1) 
1

>  <REMARK>  (1) 
 VINA RESULT:    -7.405      0.000      0.000
 INTER + INTRA:         -11.926
 INTER:                 -10.436
 INTRA:                  -1.491
 UNBOUND:                -1.491
  Name = /scratch/kmzp800/tmpyl6vbeyl/tmpedfchq12.pdb
  8 active torsions:
  status: ('A' for Active; 'I' for Inactive)
    1  A    between atoms: C3_3  and  O1_4
    2  A    between atoms: O1_4  and  C4_5
    3  A    between atoms: N2_11  and  C9_12
    4  A    between atoms: N4_20  and  C15_21
    5  A    between atoms: C15_21  and  C16_22
    6  A    between atoms: C16_22  and  C17_23
    7  A    between atoms: C17_23  and  S1_24
    8  A    between atoms: S1_24  and  C18_27
                            x       y       z     vdW  Elec       q    Type
                         _______ _______ _______ _____ _____    ______ ____

>  <TORSDO>  (1) 
F 7

>  <grid_id>  (1) 
p38-prepared

>  <grid_path>  (1) 
/projects/mai/users/kmzp800_harry/pmx_colab/docking_jobs/p38/vina_docking/input_files/p38_vina.pdbqt

>  <grid_filename>  (1) 
p38_vina.pdbqt

>  <docking_score>  (1) 
-7.405

>  <compound_name>  (1) 
lig_p38a_2p

>  <index_string>  (1) 
26:0:0

>  <s_m_Source_Path>  (1) 
/projects/mai/users/kmzp800_harry/pmx_colab/docking_jobs/p38

>  <s_m_Source_File>  (1) 
p38_confs_vina_naive.sdf

>  <i_m_Source_File_Index>  (1) 
28

$$$$
