22:0:0
     RDKit          3D

 46 49  0  0  1  0  0  0  0  0999 V2000
   33.9480   36.2350   20.4800 C   0  0  0  0  0  0  0  0  0  0  0  0
   33.7050   37.6000   20.6200 C   0  0  0  0  0  0  0  0  0  0  0  0
   33.3940   38.1230   21.8690 C   0  0  0  0  0  0  0  0  0  0  0  0
   33.1350   39.4800   22.0390 C   0  0  0  0  0  0  0  0  0  0  0  0
   32.8290   39.9590   23.2730 N   0  0  0  0  0  0  0  0  0  0  0  0
   32.7680   39.1330   24.3510 C   0  0  0  0  0  0  0  0  0  0  0  0
   32.4410   39.6750   25.6370 N   0  0  0  0  0  0  0  0  0  0  0  0
   33.0190   37.8040   24.2030 N   0  0  0  0  0  0  0  0  0  0  0  0
   33.3310   37.2750   22.9870 C   0  0  0  0  0  0  0  0  0  0  0  0
   33.5910   35.9380   22.8470 N   0  0  0  0  0  0  0  0  0  0  0  0
   33.5410   35.0660   24.0180 C   0  0  0  0  0  0  0  0  0  0  0  0
   33.9100   35.4090   21.6230 C   0  0  0  0  0  0  0  0  0  0  0  0
   34.1980   34.1840   21.5190 O   0  0  0  0  0  0  0  0  0  0  0  0
   32.3480   38.8880   26.8620 C   0  0  0  0  0  0  0  0  0  0  0  0
   32.6980   39.7360   28.0920 C   0  0  0  0  0  0  0  0  0  0  0  0
   32.1810   39.0990   29.3910 C   0  0  0  0  0  0  0  0  0  0  0  0
   31.8480   37.7470   29.1980 O   0  0  0  0  0  0  0  0  0  0  0  0
   30.6830   37.7500   28.4110 C   0  0  0  0  0  0  0  0  0  0  0  0
   30.9840   38.1910   26.9710 C   0  0  0  0  0  0  0  0  0  0  0  0
   34.2640   35.7410   19.2060 O   0  0  0  0  0  0  0  0  0  0  0  0
   38.0380   35.9060   17.3580 C   0  0  0  0  0  0  0  0  0  0  0  0
   36.8740   35.8090   16.5900 C   0  0  0  0  0  0  0  0  0  0  0  0
   35.6250   35.7610   17.2160 C   0  0  0  0  0  0  0  0  0  0  0  0
   35.5310   35.8140   18.6110 C   0  0  0  0  0  0  0  0  0  0  0  0
   36.7050   35.9020   19.3770 C   0  0  0  0  0  0  0  0  0  0  0  0
   37.9550   35.9510   18.7510 C   0  0  0  0  0  0  0  0  0  0  0  0
   33.7593   38.2621   19.7433 H   0  0  0  0  0  0  0  0  0  0  0  0
   33.1779   40.1622   21.1772 H   0  0  0  0  0  0  0  0  0  0  0  0
   32.2597   40.6869   25.7005 H   0  0  0  0  0  0  0  0  0  0  0  0
   33.5760   35.6771   24.9320 H   0  0  0  0  0  0  0  0  0  0  0  0
   32.6080   34.4836   24.0019 H   0  0  0  0  0  0  0  0  0  0  0  0
   34.4013   34.3807   24.0019 H   0  0  0  0  0  0  0  0  0  0  0  0
   33.0985   38.0849   26.8205 H   0  0  0  0  0  0  0  0  0  0  0  0
   33.7916   39.8365   28.1556 H   0  0  0  0  0  0  0  0  0  0  0  0
   32.2163   40.7183   27.9780 H   0  0  0  0  0  0  0  0  0  0  0  0
   32.9635   39.1692   30.1610 H   0  0  0  0  0  0  0  0  0  0  0  0
   31.2759   39.6385   29.7067 H   0  0  0  0  0  0  0  0  0  0  0  0
   30.2595   36.7350   28.3939 H   0  0  0  0  0  0  0  0  0  0  0  0
   29.9689   38.4621   28.8503 H   0  0  0  0  0  0  0  0  0  0  0  0
   30.2002   38.8886   26.6409 H   0  0  0  0  0  0  0  0  0  0  0  0
   31.0068   37.2932   26.3359 H   0  0  0  0  0  0  0  0  0  0  0  0
   39.0202   35.9469   16.8644 H   0  0  0  0  0  0  0  0  0  0  0  0
   36.9409   35.7704   15.4927 H   0  0  0  0  0  0  0  0  0  0  0  0
   34.7113   35.6811   16.6087 H   0  0  0  0  0  0  0  0  0  0  0  0
   36.6412   35.9325   20.4747 H   0  0  0  0  0  0  0  0  0  0  0  0
   38.8712   36.0249   19.3553 H   0  0  0  0  0  0  0  0  0  0  0  0
  1  2  2  0
  1 12  1  0
  1 20  1  0
  2  3  1  0
  3  4  2  0
  3  9  1  0
  4  5  1  0
  5  6  2  0
  6  7  1  0
  6  8  1  0
  7 14  1  0
  8  9  2  0
  9 10  1  0
 10 11  1  0
 10 12  1  0
 12 13  2  0
 14 19  1  0
 14 15  1  0
 15 16  1  0
 16 17  1  0
 17 18  1  0
 18 19  1  0
 20 24  1  0
 21 26  2  0
 21 22  1  0
 22 23  2  0
 23 24  1  0
 24 25  2  0
 25 26  1  0
  2 27  1  0
  4 28  1  0
  7 29  1  0
 11 30  1  0
 11 31  1  0
 11 32  1  0
 14 33  1  0
 15 34  1  0
 15 35  1  0
 16 36  1  0
 16 37  1  0
 18 38  1  0
 18 39  1  0
 19 40  1  0
 19 41  1  0
 21 42  1  0
 22 43  1  0
 23 44  1  0
 25 45  1  0
 26 46  1  0
M  END
>  <s_m_entry_id>  (1) 
72

>  <MODEL>  (1) 
3

>  <REMARK>  (1) 
 VINA RESULT:    -9.945      1.350      1.527
 INTER + INTRA:         -10.343
 INTER:                  -9.748
 INTRA:                  -0.595
 UNBOUND:                 1.346
  Name = /scratch/kmzp800/tmpps70diia/tmpgaxjj5og.pdb
  4 active torsions:
  status: ('A' for Active; 'I' for Inactive)
    1  A    between atoms: C4_4  and  O1_5
    2  A    between atoms: O1_5  and  C5_6
    3  A    between atoms: N2_12  and  C10_13
    4  A    between atoms: N4_21  and  C16_22
                            x       y       z     vdW  Elec       q    Type
                         _______ _______ _______ _____ _____    ______ ____

>  <TORSDO>  (1) 
F 3

>  <grid_id>  (1) 
p38-prepared

>  <grid_path>  (1) 
/projects/mai/users/kmzp800_harry/pmx_colab/docking_jobs/p38/vina_docking/input_files/p38_vina.pdbqt

>  <grid_filename>  (1) 
p38_vina.pdbqt

>  <docking_score>  (1) 
-9.945

>  <compound_name>  (1) 
lig_p38a_3flz

>  <index_string>  (1) 
22:0:0

$$$$
