13:0:0
     RDKit          3D

 37 39  0  0  1  0  0  0  0  0999 V2000
  -14.6660  -16.9100  -26.6410 N   0  0  0  0  0  0  0  0  0  0  0  0
  -16.1970  -16.0220  -24.4320 C   0  0  0  0  0  0  0  0  0  0  0  0
  -15.7280  -17.2730  -24.6490 N   0  0  0  0  0  0  0  0  0  0  0  0
  -15.0170  -17.7550  -25.7270 C   0  0  0  0  0  0  0  0  0  0  0  0
  -17.0040  -15.7860  -23.5350 O   0  0  0  0  0  0  0  0  0  0  0  0
  -14.9590  -15.5360  -26.5470 C   0  0  0  0  0  0  0  0  0  0  0  0
  -15.6670  -15.0370  -25.4480 C   0  0  0  0  0  0  0  0  0  0  0  0
  -15.8540  -13.6640  -25.2920 C   0  0  0  0  0  0  0  0  0  0  0  0
  -15.3710  -12.7930  -26.2680 C   0  0  0  0  0  0  0  0  0  0  0  0
  -14.7120  -13.2870  -27.3960 C   0  0  0  0  0  0  0  0  0  0  0  0
  -14.5060  -14.6600  -27.5430 C   0  0  0  0  0  0  0  0  0  0  0  0
  -13.8370  -15.1190  -28.6270 F   0  0  0  0  0  0  0  0  0  0  0  0
  -16.4690  -13.1780  -24.1930 F   0  0  0  0  0  0  0  0  0  0  0  0
  -14.7400  -19.2030  -25.8060 C   0  0  0  0  0  0  0  0  0  0  0  0
  -14.2190  -19.9170  -24.7170 C   0  0  0  0  0  0  0  0  0  0  0  0
  -15.0090  -19.8860  -26.9980 C   0  0  0  0  0  0  0  0  0  0  0  0
  -13.9380  -21.2720  -24.8360 C   0  0  0  0  0  0  0  0  0  0  0  0
  -14.7320  -21.2390  -27.1120 C   0  0  0  0  0  0  0  0  0  0  0  0
  -14.1820  -21.9400  -26.0400 C   0  0  0  0  0  0  0  0  0  0  0  0
  -13.7260  -23.3900  -26.2100 C   0  0  0  0  0  0  0  0  0  0  0  0
  -12.7850  -23.5860  -27.3990 C   0  0  0  0  0  0  0  0  0  0  0  0
  -14.9740  -24.2680  -26.2340 C   0  0  0  0  0  0  0  0  0  0  0  0
  -12.9490  -23.8890  -25.1570 O   0  0  0  0  0  0  0  0  0  0  0  0
  -15.9300  -17.9585  -23.9072 H   0  0  0  0  0  0  0  0  0  0  0  0
  -15.5101  -11.7084  -26.1486 H   0  0  0  0  0  0  0  0  0  0  0  0
  -14.3544  -12.5926  -28.1705 H   0  0  0  0  0  0  0  0  0  0  0  0
  -14.0319  -19.4011  -23.7636 H   0  0  0  0  0  0  0  0  0  0  0  0
  -15.4437  -19.3443  -27.8510 H   0  0  0  0  0  0  0  0  0  0  0  0
  -13.5216  -21.8221  -23.9793 H   0  0  0  0  0  0  0  0  0  0  0  0
  -14.9476  -21.7633  -28.0547 H   0  0  0  0  0  0  0  0  0  0  0  0
  -11.7698  -23.7975  -27.0322 H   0  0  0  0  0  0  0  0  0  0  0  0
  -13.1373  -24.4300  -28.0101 H   0  0  0  0  0  0  0  0  0  0  0  0
  -12.7710  -22.6715  -28.0101 H   0  0  0  0  0  0  0  0  0  0  0  0
  -15.2872  -24.4883  -25.2028 H   0  0  0  0  0  0  0  0  0  0  0  0
  -15.7840  -23.7397  -26.7582 H   0  0  0  0  0  0  0  0  0  0  0  0
  -14.7504  -25.2088  -26.7582 H   0  0  0  0  0  0  0  0  0  0  0  0
  -13.3564  -23.6274  -24.2935 H   0  0  0  0  0  0  0  0  0  0  0  0
  1  6  1  0
  1  4  2  0
  2  5  2  0
  2  3  1  0
  2  7  1  0
  3  4  1  0
  4 14  1  0
  6  7  2  0
  6 11  1  0
  7  8  1  0
  8 13  1  0
  8  9  2  0
  9 10  1  0
 10 11  2  0
 11 12  1  0
 14 15  2  0
 14 16  1  0
 15 17  1  0
 16 18  2  0
 17 19  2  0
 18 19  1  0
 19 20  1  0
 20 23  1  0
 20 21  1  0
 20 22  1  0
  3 24  1  0
  9 25  1  0
 10 26  1  0
 15 27  1  0
 16 28  1  0
 17 29  1  0
 18 30  1  0
 21 31  1  0
 21 32  1  0
 21 33  1  0
 22 34  1  0
 22 35  1  0
 22 36  1  0
 23 37  1  0
M  END
>  <s_m_entry_id>  (1) 
2341

>  <MODEL>  (1) 
1

>  <REMARK>  (1) 
 VINA RESULT:   -11.445      0.000      0.000
 INTER + INTRA:         -13.571
 INTER:                 -13.117
 INTRA:                  -0.453
 UNBOUND:                -0.453
  Name = 5l
  5 active torsions:
  status: ('A' for Active; 'I' for Inactive)
    1  A    between atoms: C_1  and  C_11
    2  A    between atoms: C_7  and  C_8
    3  A    between atoms: C_8  and  C_13
    4  A    between atoms: C_8  and  O_14
    5  A    between atoms: C_8  and  C_15
                            x       y       z     vdW  Elec       q    Type
                         _______ _______ _______ _____ _____    ______ ____

>  <TORSDO>  (1) 
F 3

>  <s_m_Source_Path>  (1) 
/projects/mai/users/kmzp800_harry/pmx_colab/docking_jobs/tnks2/vina_prep/output

>  <s_m_Source_File>  (1) 
tnks_naive_vina.sdf

>  <i_m_Source_File_Index>  (1) 
14

>  <index_string>  (1) 
13:0:0

$$$$
