13:0:0
     RDKit          3D

 46 49  0  0  1  0  0  0  0  0999 V2000
   35.1886   35.1337   15.8056 F   0  0  0  0  0  0  0  0  0  0  0  0
   36.1020   35.5522   16.7121 C   0  0  0  0  0  0  0  0  0  0  0  0
   37.3928   35.9263   16.2793 C   0  0  0  0  0  0  0  0  0  0  0  0
   38.3637   36.3378   17.2137 C   0  0  0  0  0  0  0  0  0  0  0  0
   38.0481   36.3489   18.5873 C   0  0  0  0  0  0  0  0  0  0  0  0
   36.7623   35.9773   19.0232 C   0  0  0  0  0  0  0  0  0  0  0  0
   35.7710   35.6048   18.0858 C   0  0  0  0  0  0  0  0  0  0  0  0
   34.1554   35.1212   18.6197 S   0  0  0  0  0  0  0  0  0  0  0  0
   33.9233   36.0198   20.1369 C   0  0  0  0  0  0  0  0  0  0  0  0
   34.1550   37.3348   20.2950 C   0  0  0  0  0  0  0  0  0  0  0  0
   33.4898   35.1438   21.2361 C   0  0  0  0  0  0  0  0  0  0  0  0
   33.4053   33.9182   21.1205 O   0  0  0  0  0  0  0  0  0  0  0  0
   33.2366   35.7717   22.4240 N   0  0  0  0  0  0  0  0  0  0  0  0
   32.7247   34.9791   23.5525 C   0  0  0  0  0  0  0  0  0  0  0  0
   33.5264   37.1586   22.6663 C   0  0  0  0  0  0  0  0  0  0  0  0
   33.9879   37.9542   21.5987 C   0  0  0  0  0  0  0  0  0  0  0  0
   33.3936   37.7143   23.8894 N   0  0  0  0  0  0  0  0  0  0  0  0
   33.7006   39.0020   24.0460 C   0  0  0  0  0  0  0  0  0  0  0  0
   34.1523   39.8279   23.1042 N   0  0  0  0  0  0  0  0  0  0  0  0
   34.2949   39.3020   21.8697 C   0  0  0  0  0  0  0  0  0  0  0  0
   33.5359   39.5491   25.3016 N   0  0  0  0  0  0  0  0  0  0  0  0
   32.9443   38.8566   26.4423 C   0  0  0  0  0  0  0  0  0  0  0  0
   33.2488   39.5950   27.7523 C   0  0  0  0  0  0  0  0  0  0  0  0
   32.5906   38.8652   28.9347 C   0  0  0  0  0  0  0  0  0  0  0  0
   31.1887   38.7485   28.7277 O   0  0  0  0  0  0  0  0  0  0  0  0
   30.8415   38.0105   27.5597 C   0  0  0  0  0  0  0  0  0  0  0  0
   31.4178   38.6995   26.3104 C   0  0  0  0  0  0  0  0  0  0  0  0
   37.6370   35.8977   15.2272 H   0  0  0  0  0  0  0  0  0  0  0  0
   39.3512   36.6290   16.8846 H   0  0  0  0  0  0  0  0  0  0  0  0
   38.7936   36.6366   19.3116 H   0  0  0  0  0  0  0  0  0  0  0  0
   36.5568   35.9829   20.0835 H   0  0  0  0  0  0  0  0  0  0  0  0
   34.4962   37.9544   19.4790 H   0  0  0  0  0  0  0  0  0  0  0  0
   33.5448   34.7109   24.2195 H   0  0  0  0  0  0  0  0  0  0  0  0
   31.9879   35.5413   24.1313 H   0  0  0  0  0  0  0  0  0  0  0  0
   32.2226   34.0599   23.2500 H   0  0  0  0  0  0  0  0  0  0  0  0
   34.6624   39.9578   21.0953 H   0  0  0  0  0  0  0  0  0  0  0  0
   33.7526   40.5354   25.4118 H   0  0  0  0  0  0  0  0  0  0  0  0
   33.3955   37.8637   26.5018 H   0  0  0  0  0  0  0  0  0  0  0  0
   34.3266   39.6623   27.9082 H   0  0  0  0  0  0  0  0  0  0  0  0
   32.8742   40.6202   27.7046 H   0  0  0  0  0  0  0  0  0  0  0  0
   33.0295   37.8748   29.0726 H   0  0  0  0  0  0  0  0  0  0  0  0
   32.7614   39.4226   29.8549 H   0  0  0  0  0  0  0  0  0  0  0  0
   31.2172   36.9898   27.6427 H   0  0  0  0  0  0  0  0  0  0  0  0
   29.7549   37.9474   27.4920 H   0  0  0  0  0  0  0  0  0  0  0  0
   30.9534   39.6781   26.1849 H   0  0  0  0  0  0  0  0  0  0  0  0
   31.1582   38.1206   25.4255 H   0  0  0  0  0  0  0  0  0  0  0  0
  1  2  1  0
  2  7  2  0
  2  3  1  0
  3  4  2  0
  3 28  1  0
  4  5  1  0
  4 29  1  0
  5  6  2  0
  5 30  1  0
  6  7  1  0
  6 31  1  0
  7  8  1  0
  8  9  1  0
  9 10  2  0
  9 11  1  0
 10 16  1  0
 10 32  1  0
 11 12  2  0
 11 13  1  0
 13 14  1  0
 13 15  1  0
 14 33  1  0
 14 34  1  0
 14 35  1  0
 15 16  2  0
 15 17  1  0
 16 20  1  0
 17 18  2  0
 18 19  1  0
 18 21  1  0
 19 20  2  0
 20 36  1  0
 21 22  1  0
 21 37  1  0
 22 27  1  0
 22 23  1  0
 22 38  1  0
 23 24  1  0
 23 39  1  0
 23 40  1  0
 24 25  1  0
 24 41  1  0
 24 42  1  0
 25 26  1  0
 26 27  1  0
 26 43  1  0
 26 44  1  0
 27 45  1  0
 27 46  1  0
M  END
>  <s_m_entry_id>  (1) 
730

>  <i_f3d_flags>  (1) 
0

>  <r_lp_tautomer_probability>  (1) 
1

>  <r_epik_Ionization_Penalty>  (1) 
  0.0000

>  <r_epik_State_Penalty>  (1) 
  0.0000

>  <i_epik_Tot_Q>  (1) 
0

>  <s_m_job_name>  (1) 
glide-dock_SP_p38_all_ligs_no_cons_10_poses

>  <r_i_docking_score>  (1) 
-7.42930141047868

>  <r_i_glide_gscore>  (1) 
-7.42930141047868

>  <r_i_glide_emodel>  (1) 
-60.658158996823

>  <index_string>  (1) 
13:0:0

$$$$
