17:0:0
     RDKit          3D

 37 39  0  0  1  0  0  0  0  0999 V2000
  -14.6000  -14.7240  -27.4650 C   0  0  0  0  0  0  0  0  0  0  0  0
  -15.0210  -15.5980  -26.4620 C   0  0  0  0  0  0  0  0  0  0  0  0
  -14.8200  -13.3520  -27.3220 C   0  0  0  0  0  0  0  0  0  0  0  0
  -15.7230  -15.1080  -25.3570 C   0  0  0  0  0  0  0  0  0  0  0  0
  -14.7030  -16.9590  -26.5680 N   0  0  0  0  0  0  0  0  0  0  0  0
  -15.4850  -12.8650  -26.1950 C   0  0  0  0  0  0  0  0  0  0  0  0
  -15.9540  -13.7420  -25.2130 C   0  0  0  0  0  0  0  0  0  0  0  0
  -16.2130  -16.0990  -24.3300 C   0  0  0  0  0  0  0  0  0  0  0  0
  -15.7560  -17.3530  -24.5720 N   0  0  0  0  0  0  0  0  0  0  0  0
  -16.9670  -15.8560  -23.3930 O   0  0  0  0  0  0  0  0  0  0  0  0
  -15.0400  -17.8150  -25.6570 C   0  0  0  0  0  0  0  0  0  0  0  0
  -14.7390  -19.2560  -25.7520 C   0  0  0  0  0  0  0  0  0  0  0  0
  -14.2110  -19.9770  -24.6720 C   0  0  0  0  0  0  0  0  0  0  0  0
  -13.9180  -21.3300  -24.8070 C   0  0  0  0  0  0  0  0  0  0  0  0
  -14.1420  -21.9810  -26.0230 C   0  0  0  0  0  0  0  0  0  0  0  0
  -14.6920  -21.2690  -27.0900 C   0  0  0  0  0  0  0  0  0  0  0  0
  -14.9890  -19.9240  -26.9550 C   0  0  0  0  0  0  0  0  0  0  0  0
  -13.6550  -23.4160  -26.2260 C   0  0  0  0  0  0  0  0  0  0  0  0
  -12.6660  -23.5790  -27.3910 C   0  0  0  0  0  0  0  0  0  0  0  0
  -14.8990  -24.3000  -26.3320 C   0  0  0  0  0  0  0  0  0  0  0  0
  -12.9090  -23.9220  -25.1490 O   0  0  0  0  0  0  0  0  0  0  0  0
  -14.0978  -15.1131  -28.3630 H   0  0  0  0  0  0  0  0  0  0  0  0
  -14.4693  -12.6551  -28.0974 H   0  0  0  0  0  0  0  0  0  0  0  0
  -15.6410  -11.7823  -26.0791 H   0  0  0  0  0  0  0  0  0  0  0  0
  -16.4986  -13.3584  -24.3376 H   0  0  0  0  0  0  0  0  0  0  0  0
  -15.9725  -18.0540  -23.8491 H   0  0  0  0  0  0  0  0  0  0  0  0
  -14.0275  -19.4703  -23.7131 H   0  0  0  0  0  0  0  0  0  0  0  0
  -13.5084  -21.8897  -23.9532 H   0  0  0  0  0  0  0  0  0  0  0  0
  -14.8906  -21.7798  -28.0438 H   0  0  0  0  0  0  0  0  0  0  0  0
  -15.4260  -19.3750  -27.8022 H   0  0  0  0  0  0  0  0  0  0  0  0
  -11.6543  -23.7457  -26.9926 H   0  0  0  0  0  0  0  0  0  0  0  0
  -12.9639  -24.4402  -28.0071 H   0  0  0  0  0  0  0  0  0  0  0  0
  -12.6718  -22.6678  -28.0071 H   0  0  0  0  0  0  0  0  0  0  0  0
  -15.2557  -24.5535  -25.3228 H   0  0  0  0  0  0  0  0  0  0  0  0
  -15.6881  -23.7589  -26.8747 H   0  0  0  0  0  0  0  0  0  0  0  0
  -14.6476  -25.2232  -26.8747 H   0  0  0  0  0  0  0  0  0  0  0  0
  -13.3261  -23.6391  -24.2969 H   0  0  0  0  0  0  0  0  0  0  0  0
  1  3  2  0
  1  2  1  0
  2  4  2  0
  2  5  1  0
  3  6  1  0
  4  7  1  0
  4  8  1  0
  5 11  2  0
  6  7  2  0
  8 10  2  0
  8  9  1  0
  9 11  1  0
 11 12  1  0
 12 13  2  0
 12 17  1  0
 13 14  1  0
 14 15  2  0
 15 16  1  0
 15 18  1  0
 16 17  2  0
 18 21  1  0
 18 19  1  0
 18 20  1  0
  1 22  1  0
  3 23  1  0
  6 24  1  0
  7 25  1  0
  9 26  1  0
 13 27  1  0
 14 28  1  0
 16 29  1  0
 17 30  1  0
 19 31  1  0
 19 32  1  0
 19 33  1  0
 20 34  1  0
 20 35  1  0
 20 36  1  0
 21 37  1  0
M  END
>  <s_m_entry_id>  (1) 
2473

>  <MODEL>  (1) 
1

>  <REMARK>  (1) 
 VINA RESULT:   -11.138      0.000      0.000
 INTER + INTRA:         -13.225
 INTER:                 -12.798
 INTRA:                  -0.427
 UNBOUND:                -0.458
  Name = 5a
  5 active torsions:
  status: ('A' for Active; 'I' for Inactive)
    1  A    between atoms: C_11  and  C_12
    2  A    between atoms: C_15  and  C_18
    3  A    between atoms: C_18  and  O_19
    4  A    between atoms: C_18  and  C_20
    5  A    between atoms: C_18  and  C_21
                            x       y       z     vdW  Elec       q    Type
                         _______ _______ _______ _____ _____    ______ ____

>  <TORSDO>  (1) 
F 3

>  <s_m_Source_Path>  (1) 
/projects/mai/users/kmzp800_harry/pmx_colab/docking_jobs/tnks2/vina_prep/output_mcs

>  <s_m_Source_File>  (1) 
tnks_mcs_vina__all_poses.sdf

>  <i_m_Source_File_Index>  (1) 
91

>  <index_string>  (1) 
17:0:0

$$$$
