9:0:0
     RDKit          3D

 40 42  0  0  1  0  0  0  0  0999 V2000
  -14.6720  -16.7660  -26.5730 N   0  0  0  0  0  0  0  0  0  0  0  0
  -14.9650  -15.4020  -26.4920 C   0  0  0  0  0  0  0  0  0  0  0  0
  -15.7270  -14.9090  -25.4230 C   0  0  0  0  0  0  0  0  0  0  0  0
  -15.4540  -12.6930  -26.2830 C   0  0  0  0  0  0  0  0  0  0  0  0
  -14.7120  -13.1690  -27.3570 C   0  0  0  0  0  0  0  0  0  0  0  0
  -15.9740  -13.5420  -25.3130 C   0  0  0  0  0  0  0  0  0  0  0  0
  -14.4810  -14.5350  -27.4850 C   0  0  0  0  0  0  0  0  0  0  0  0
  -16.2890  -15.8910  -24.4170 C   0  0  0  0  0  0  0  0  0  0  0  0
  -15.8900  -17.1670  -24.6800 N   0  0  0  0  0  0  0  0  0  0  0  0
  -15.0940  -17.6250  -25.7120 C   0  0  0  0  0  0  0  0  0  0  0  0
  -17.0490  -15.6250  -23.4840 O   0  0  0  0  0  0  0  0  0  0  0  0
  -13.7070  -15.0200  -28.7000 C   0  0  0  0  0  0  0  0  0  0  0  0
  -15.6930  -11.3860  -26.2150 F   0  0  0  0  0  0  0  0  0  0  0  0
  -14.7760  -19.0560  -25.8460 C   0  0  0  0  0  0  0  0  0  0  0  0
  -14.2010  -19.7280  -24.7580 C   0  0  0  0  0  0  0  0  0  0  0  0
  -15.0390  -19.7590  -27.0270 C   0  0  0  0  0  0  0  0  0  0  0  0
  -13.9010  -21.0730  -24.8420 C   0  0  0  0  0  0  0  0  0  0  0  0
  -14.7540  -21.1160  -27.1010 C   0  0  0  0  0  0  0  0  0  0  0  0
  -14.1810  -21.7810  -26.0090 C   0  0  0  0  0  0  0  0  0  0  0  0
  -13.9710  -23.2930  -26.0390 C   0  0  0  0  0  0  0  0  0  0  0  0
  -13.0550  -23.7420  -27.1760 C   0  0  0  0  0  0  0  0  0  0  0  0
  -15.3540  -23.9430  -26.0790 C   0  0  0  0  0  0  0  0  0  0  0  0
  -13.3030  -23.7950  -24.9010 O   0  0  0  0  0  0  0  0  0  0  0  0
  -14.3088  -12.4685  -28.1032 H   0  0  0  0  0  0  0  0  0  0  0  0
  -16.5674  -13.1435  -24.4769 H   0  0  0  0  0  0  0  0  0  0  0  0
  -16.2263  -17.8850  -24.0225 H   0  0  0  0  0  0  0  0  0  0  0  0
  -12.8178  -15.5772  -28.3699 H   0  0  0  0  0  0  0  0  0  0  0  0
  -14.3484  -15.6780  -29.3047 H   0  0  0  0  0  0  0  0  0  0  0  0
  -13.3946  -14.1558  -29.3047 H   0  0  0  0  0  0  0  0  0  0  0  0
  -13.9870  -19.1787  -23.8293 H   0  0  0  0  0  0  0  0  0  0  0  0
  -15.4704  -19.2380  -27.8945 H   0  0  0  0  0  0  0  0  0  0  0  0
  -13.4399  -21.5869  -23.9857 H   0  0  0  0  0  0  0  0  0  0  0  0
  -14.9795  -21.6724  -28.0227 H   0  0  0  0  0  0  0  0  0  0  0  0
  -12.1420  -24.1895  -26.7563 H   0  0  0  0  0  0  0  0  0  0  0  0
  -13.5770  -24.4864  -27.7952 H   0  0  0  0  0  0  0  0  0  0  0  0
  -12.7864  -22.8734  -27.7952 H   0  0  0  0  0  0  0  0  0  0  0  0
  -15.7103  -24.1105  -25.0519 H   0  0  0  0  0  0  0  0  0  0  0  0
  -16.0555  -23.2803  -26.6070 H   0  0  0  0  0  0  0  0  0  0  0  0
  -15.2914  -24.9060  -26.6070 H   0  0  0  0  0  0  0  0  0  0  0  0
  -13.7483  -23.4604  -24.0826 H   0  0  0  0  0  0  0  0  0  0  0  0
  1  2  1  0
  1 10  2  0
  2  3  2  0
  2  7  1  0
  3  6  1  0
  3  8  1  0
  4 13  1  0
  4  6  2  0
  4  5  1  0
  5  7  2  0
  7 12  1  0
  8 11  2  0
  8  9  1  0
  9 10  1  0
 10 14  1  0
 14 15  2  0
 14 16  1  0
 15 17  1  0
 16 18  2  0
 17 19  2  0
 18 19  1  0
 19 20  1  0
 20 23  1  0
 20 21  1  0
 20 22  1  0
  5 24  1  0
  6 25  1  0
  9 26  1  0
 12 27  1  0
 12 28  1  0
 12 29  1  0
 15 30  1  0
 16 31  1  0
 17 32  1  0
 18 33  1  0
 21 34  1  0
 21 35  1  0
 21 36  1  0
 22 37  1  0
 22 38  1  0
 22 39  1  0
 23 40  1  0
M  END
>  <s_m_entry_id>  (1) 
2434

>  <MODEL>  (1) 
1

>  <REMARK>  (1) 
 VINA RESULT:   -10.690      0.000      0.000
 INTER + INTRA:         -12.700
 INTER:                 -12.243
 INTRA:                  -0.458
 UNBOUND:                -0.448
  Name = 5m
  6 active torsions:
  status: ('A' for Active; 'I' for Inactive)
    1  A    between atoms: C_1  and  C_17
    2  A    between atoms: C_7  and  C_8
    3  A    between atoms: C_8  and  C_19
    4  A    between atoms: C_8  and  O_20
    5  A    between atoms: C_8  and  C_21
    6  A    between atoms: C_14  and  C_22
                            x       y       z     vdW  Elec       q    Type
                         _______ _______ _______ _____ _____    ______ ____

>  <TORSDO>  (1) 
F 3

>  <s_m_Source_Path>  (1) 
/projects/mai/users/kmzp800_harry/pmx_colab/docking_jobs/tnks2/vina_prep/output_mcs

>  <s_m_Source_File>  (1) 
tnks_mcs_vina__all_poses.sdf

>  <i_m_Source_File_Index>  (1) 
52

>  <index_string>  (1) 
9:0:0

$$$$
