2:0:0
     RDKit          3D

 46 49  0  0  1  0  0  0  0  0999 V2000
   33.9560   35.9880   20.3230 C   0  0  0  0  0  0  0  0  0  0  0  0
   33.8960   37.3720   20.4750 C   0  0  0  0  0  0  0  0  0  0  0  0
   33.8530   37.9290   21.7470 C   0  0  0  0  0  0  0  0  0  0  0  0
   33.7820   39.3070   21.9300 C   0  0  0  0  0  0  0  0  0  0  0  0
   33.7360   39.8190   23.1870 N   0  0  0  0  0  0  0  0  0  0  0  0
   33.7580   39.0070   24.2780 C   0  0  0  0  0  0  0  0  0  0  0  0
   33.7090   39.5840   25.5870 N   0  0  0  0  0  0  0  0  0  0  0  0
   33.8290   37.6570   24.1160 N   0  0  0  0  0  0  0  0  0  0  0  0
   33.8760   37.0940   22.8770 C   0  0  0  0  0  0  0  0  0  0  0  0
   33.9560   35.7360   22.7230 N   0  0  0  0  0  0  0  0  0  0  0  0
   33.9980   34.8780   23.9040 C   0  0  0  0  0  0  0  0  0  0  0  0
   34.0100   35.1730   21.4750 C   0  0  0  0  0  0  0  0  0  0  0  0
   34.1290   33.9220   21.3510 O   0  0  0  0  0  0  0  0  0  0  0  0
   33.7270   38.8140   26.8260 C   0  0  0  0  0  0  0  0  0  0  0  0
   32.9000   39.5040   27.9200 C   0  0  0  0  0  0  0  0  0  0  0  0
   33.2610   38.9880   29.3200 C   0  0  0  0  0  0  0  0  0  0  0  0
   33.9690   37.7760   29.2490 O   0  0  0  0  0  0  0  0  0  0  0  0
   35.2390   38.1040   28.7430 C   0  0  0  0  0  0  0  0  0  0  0  0
   35.1630   38.4930   27.2600 C   0  0  0  0  0  0  0  0  0  0  0  0
   34.0030   35.4630   19.0240 O   0  0  0  0  0  0  0  0  0  0  0  0
   35.8680   35.5900   15.8380 C   0  0  0  0  0  0  0  0  0  0  0  0
   34.8270   35.4780   16.7640 C   0  0  0  0  0  0  0  0  0  0  0  0
   35.0800   35.5930   18.1350 C   0  0  0  0  0  0  0  0  0  0  0  0
   36.4040   35.7940   18.5770 C   0  0  0  0  0  0  0  0  0  0  0  0
   36.7030   35.8420   19.8990 F   0  0  0  0  0  0  0  0  0  0  0  0
   37.4420   35.9050   17.6470 C   0  0  0  0  0  0  0  0  0  0  0  0
   37.1740   35.8120   16.2790 C   0  0  0  0  0  0  0  0  0  0  0  0
   38.1820   35.9210   15.3820 F   0  0  0  0  0  0  0  0  0  0  0  0
   33.8827   38.0230   19.5884 H   0  0  0  0  0  0  0  0  0  0  0  0
   33.7632   39.9791   21.0594 H   0  0  0  0  0  0  0  0  0  0  0  0
   33.6577   40.6102   25.6589 H   0  0  0  0  0  0  0  0  0  0  0  0
   33.9675   35.5003   24.8106 H   0  0  0  0  0  0  0  0  0  0  0  0
   33.1320   34.1998   23.8955 H   0  0  0  0  0  0  0  0  0  0  0  0
   34.9261   34.2876   23.8955 H   0  0  0  0  0  0  0  0  0  0  0  0
   33.2410   37.8446   26.6414 H   0  0  0  0  0  0  0  0  0  0  0  0
   33.0898   40.5868   27.8799 H   0  0  0  0  0  0  0  0  0  0  0  0
   31.8384   39.2811   27.7372 H   0  0  0  0  0  0  0  0  0  0  0  0
   33.8842   39.7381   29.8290 H   0  0  0  0  0  0  0  0  0  0  0  0
   32.3290   38.8143   29.8778 H   0  0  0  0  0  0  0  0  0  0  0  0
   35.6455   38.9508   29.3155 H   0  0  0  0  0  0  0  0  0  0  0  0
   35.8900   37.2225   28.8386 H   0  0  0  0  0  0  0  0  0  0  0  0
   35.5394   37.6563   26.6531 H   0  0  0  0  0  0  0  0  0  0  0  0
   35.7738   39.3959   27.1125 H   0  0  0  0  0  0  0  0  0  0  0  0
   35.6583   35.5032   14.7617 H   0  0  0  0  0  0  0  0  0  0  0  0
   33.8006   35.2980   16.4118 H   0  0  0  0  0  0  0  0  0  0  0  0
   38.4734   36.0661   17.9936 H   0  0  0  0  0  0  0  0  0  0  0  0
  1  2  2  0
  1 12  1  0
  1 20  1  0
  2  3  1  0
  3  4  2  0
  3  9  1  0
  4  5  1  0
  5  6  2  0
  6  7  1  0
  6  8  1  0
  7 14  1  0
  8  9  2  0
  9 10  1  0
 10 11  1  0
 10 12  1  0
 12 13  2  0
 14 19  1  0
 14 15  1  0
 15 16  1  0
 16 17  1  0
 17 18  1  0
 18 19  1  0
 20 23  1  0
 21 27  2  0
 21 22  1  0
 22 23  2  0
 23 24  1  0
 24 25  1  0
 24 26  2  0
 26 27  1  0
 27 28  1  0
  2 29  1  0
  4 30  1  0
  7 31  1  0
 11 32  1  0
 11 33  1  0
 11 34  1  0
 14 35  1  0
 15 36  1  0
 15 37  1  0
 16 38  1  0
 16 39  1  0
 18 40  1  0
 18 41  1  0
 19 42  1  0
 19 43  1  0
 21 44  1  0
 22 45  1  0
 26 46  1  0
M  END
>  <s_m_entry_id>  (1) 
51

>  <MODEL>  (1) 
2

>  <REMARK>  (1) 
 VINA RESULT:    -8.929      1.408      1.903
 INTER + INTRA:         -10.297
 INTER:                  -9.915
 INTRA:                  -0.382
 UNBOUND:                 0.198
  Name = /scratch/kmzp800/tmpsgjhmms0/tmpaf4j2cok.pdb
  4 active torsions:
  status: ('A' for Active; 'I' for Inactive)
    1  A    between atoms: C3_3  and  O1_4
    2  A    between atoms: O1_4  and  C4_5
    3  A    between atoms: N2_11  and  C9_12
    4  A    between atoms: N4_20  and  C15_21
                            x       y       z     vdW  Elec       q    Type
                         _______ _______ _______ _____ _____    ______ ____

>  <TORSDO>  (1) 
F 3

>  <grid_id>  (1) 
p38-prepared

>  <grid_path>  (1) 
/projects/mai/users/kmzp800_harry/pmx_colab/docking_jobs/p38/vina_docking/input_files/p38_vina.pdbqt

>  <grid_filename>  (1) 
p38_vina.pdbqt

>  <docking_score>  (1) 
-8.929

>  <compound_name>  (1) 
lig_p38a_3fln

>  <index_string>  (1) 
2:0:0

$$$$
