30:0:0
     RDKit          3D

 47 51  0  0  1  0  0  0  0  0999 V2000
    6.2120    0.2540   15.7990 C   0  0  0  0  0  0  0  0  0  0  0  0
    5.7540    1.0080   14.7680 N   0  0  0  0  0  0  0  0  0  0  0  0
    4.4910    0.5780   14.6000 C   0  0  0  0  0  0  0  0  0  0  0  0
    3.5730    1.0350   13.6570 C   0  0  0  0  0  0  0  0  0  0  0  0
    3.9340    2.0700   12.7320 N   0  0  0  0  0  0  0  0  0  0  0  0
    2.3320    0.4620   13.6540 N   0  0  0  0  0  0  0  0  0  0  0  0
    1.9800   -0.5270   14.5340 C   0  0  0  0  0  0  0  0  0  0  0  0
    2.9280   -0.9690   15.4760 C   0  0  0  0  0  0  0  0  0  0  0  0
    4.1500   -0.3860   15.4600 N   0  0  0  0  0  0  0  0  0  0  0  0
    5.2160   -0.6180   16.2350 C   0  0  0  0  0  0  0  0  0  0  0  0
    0.6240   -1.1110   14.4850 C   0  0  0  0  0  0  0  0  0  0  0  0
    0.3030   -2.2190   15.3120 C   0  0  0  0  0  0  0  0  0  0  0  0
   -0.9800   -2.7970   15.2870 C   0  0  0  0  0  0  0  0  0  0  0  0
   -1.9120   -2.2380   14.4210 C   0  0  0  0  0  0  0  0  0  0  0  0
   -3.2240   -2.5610   14.1640 C   0  0  0  0  0  0  0  0  0  0  0  0
   -3.6620   -1.6830   13.2240 N   0  0  0  0  0  0  0  0  0  0  0  0
   -2.6890   -0.8400   12.8930 N   0  0  0  0  0  0  0  0  0  0  0  0
   -1.6180   -1.1760   13.6230 C   0  0  0  0  0  0  0  0  0  0  0  0
   -0.3600   -0.5790   13.6200 C   0  0  0  0  0  0  0  0  0  0  0  0
    3.1060    2.6430   11.7090 C   0  0  0  0  0  0  0  0  0  0  0  0
    3.6190    3.0240   10.4620 C   0  0  0  0  0  0  0  0  0  0  0  0
    2.7810    3.5780    9.4940 C   0  0  0  0  0  0  0  0  0  0  0  0
    1.4140    3.7610    9.7570 C   0  0  0  0  0  0  0  0  0  0  0  0
    0.8920    3.3810   11.0030 C   0  0  0  0  0  0  0  0  0  0  0  0
    1.7450    2.8240   11.9710 C   0  0  0  0  0  0  0  0  0  0  0  0
    0.5570    4.3140    8.7980 O   0  0  0  0  0  0  0  0  0  0  0  0
    0.2570    5.7030    8.7460 C   0  0  0  0  0  0  0  0  0  0  0  0
   -0.4710    3.5650   11.2590 O   0  0  0  0  0  0  0  0  0  0  0  0
   -1.2120    2.7200   12.1290 C   0  0  0  0  0  0  0  0  0  0  0  0
    7.2225    0.3212   16.2283 H   0  0  0  0  0  0  0  0  0  0  0  0
    4.8911    2.4425   12.8103 H   0  0  0  0  0  0  0  0  0  0  0  0
    2.6845   -1.7605   16.2000 H   0  0  0  0  0  0  0  0  0  0  0  0
    5.2911   -1.3502   17.0524 H   0  0  0  0  0  0  0  0  0  0  0  0
    1.0697   -2.6328   15.9836 H   0  0  0  0  0  0  0  0  0  0  0  0
   -1.2344   -3.6553   15.9262 H   0  0  0  0  0  0  0  0  0  0  0  0
   -3.8050   -3.3714   14.6285 H   0  0  0  0  0  0  0  0  0  0  0  0
   -2.7477   -0.0746   12.2062 H   0  0  0  0  0  0  0  0  0  0  0  0
   -0.1391    0.2779   12.9666 H   0  0  0  0  0  0  0  0  0  0  0  0
    4.6885    2.8855   10.2451 H   0  0  0  0  0  0  0  0  0  0  0  0
    3.1940    3.8734    8.5182 H   0  0  0  0  0  0  0  0  0  0  0  0
    1.3362    2.5265   12.9479 H   0  0  0  0  0  0  0  0  0  0  0  0
    0.1716    6.0982    9.7690 H   0  0  0  0  0  0  0  0  0  0  0  0
    1.0615    6.2322    8.2144 H   0  0  0  0  0  0  0  0  0  0  0  0
   -0.6943    5.8530    8.2144 H   0  0  0  0  0  0  0  0  0  0  0  0
   -0.9846    2.9793   13.1735 H   0  0  0  0  0  0  0  0  0  0  0  0
   -2.2877    2.8555   11.9434 H   0  0  0  0  0  0  0  0  0  0  0  0
   -0.9372    1.6712   11.9434 H   0  0  0  0  0  0  0  0  0  0  0  0
  1 10  2  0
  1  2  1  0
  2  3  2  0
  3  9  1  0
  3  4  1  0
  4  5  1  0
  4  6  2  0
  5 20  1  0
  6  7  1  0
  7  8  2  0
  7 11  1  0
  8  9  1  0
  9 10  1  0
 11 12  2  0
 11 19  1  0
 12 13  1  0
 13 14  2  0
 14 15  1  0
 14 18  1  0
 15 16  2  0
 16 17  1  0
 17 18  1  0
 18 19  2  0
 20 25  1  0
 20 21  2  0
 21 22  1  0
 22 23  2  0
 23 24  1  0
 23 26  1  0
 24 28  1  0
 24 25  2  0
 26 27  1  0
 28 29  1  0
  1 30  1  0
  5 31  1  0
  8 32  1  0
 10 33  1  0
 12 34  1  0
 13 35  1  0
 15 36  1  0
 17 37  1  0
 19 38  1  0
 21 39  1  0
 22 40  1  0
 25 41  1  0
 27 42  1  0
 27 43  1  0
 27 44  1  0
 29 45  1  0
 29 46  1  0
 29 47  1  0
M  END
>  <s_m_entry_id>  (1) 
31

>  <MODEL>  (1) 
1

>  <REMARK>  (1) 
 VINA RESULT:    -9.318      0.000      0.000
 INTER + INTRA:         -12.000
 INTER:                 -11.496
 INTRA:                  -0.504
 UNBOUND:                -0.504
  Name = /scratch/kmzp800/tmpf1rwi9mn/tmpulgp4q_0.pdb
  6 active torsions:
  status: ('A' for Active; 'I' for Inactive)
    1  A    between atoms: N2_5  and  C4_6
    2  A    between atoms: C7_9  and  O1_10
    3  A    between atoms: O1_10  and  C8_11
    4  A    between atoms: C9_12  and  O2_13
    5  A    between atoms: O2_13  and  C10_14
    6  A    between atoms: C12_17  and  C13_18
                            x       y       z     vdW  Elec       q    Type
                         _______ _______ _______ _____ _____    ______ ____

>  <TORSDO>  (1) 
F 4

>  <grid_id>  (1) 
syk-prepared

>  <grid_path>  (1) 
syk_vina.pdbqt

>  <grid_filename>  (1) 
syk_vina.pdbqt

>  <docking_score>  (1) 
-9.318

>  <compound_name>  (1) 
CHEMBL3265017

>  <index_string>  (1) 
30:0:0

>  <s_m_Source_Path>  (1) 
/projects/mai/users/kmzp800_harry/pmx_colab/docking_jobs/syk/vina_prep/output

>  <s_m_Source_File>  (1) 
ptp1b_docked_conformers.sdf

>  <i_m_Source_File_Index>  (1) 
31

$$$$
