20:0:0
     RDKit          3D

 45 47  0  0  1  0  0  0  0  0999 V2000
   41.3918   17.4863   11.8287 O   0  0  0  0  0  0  0  0  0  0  0  0
   40.5980   17.3565   12.7914 C   0  0  0  0  0  0  0  0  0  0  0  0
   39.4638   17.8861   12.8441 O   0  0  0  0  0  0  0  0  0  0  0  0
   41.0237   16.5142   14.0023 C   0  0  0  0  0  0  0  0  0  0  0  0
   42.1859   15.7352   13.7279 O   0  0  0  0  0  0  0  0  0  0  0  0
   42.5585   14.9246   14.7473 C   0  0  0  0  0  0  0  0  0  0  0  0
   42.1491   13.5765   14.8980 C   0  0  0  0  0  0  0  0  0  0  0  0
   40.9838   12.7784   13.6602 Br  0  0  0  0  0  0  0  0  0  0  0  0
   42.6093   12.9213   16.0069 C   0  0  0  0  0  0  0  0  0  0  0  0
   43.6409   13.9804   16.9151 S   0  0  0  0  0  0  0  0  0  0  0  0
   43.3732   15.2898   15.7851 C   0  0  0  0  0  0  0  0  0  0  0  0
   44.0109   16.5561   16.1129 C   0  0  0  0  0  0  0  0  0  0  0  0
   44.5839   16.6861   17.2135 O   0  0  0  0  0  0  0  0  0  0  0  0
   43.9626   17.4934   15.2938 O   0  0  0  0  0  0  0  0  0  0  0  0
   42.3522   11.5670   16.4867 C   0  0  0  0  0  0  0  0  0  0  0  0
   43.3992   10.7825   17.0106 C   0  0  0  0  0  0  0  0  0  0  0  0
   43.1648    9.4678   17.4499 C   0  0  0  0  0  0  0  0  0  0  0  0
   41.8742    8.9188   17.3547 C   0  0  0  0  0  0  0  0  0  0  0  0
   40.8139    9.6792   16.8186 C   0  0  0  0  0  0  0  0  0  0  0  0
   41.0587   11.0056   16.4154 C   0  0  0  0  0  0  0  0  0  0  0  0
   39.5195    9.1740   16.6294 N   0  0  0  0  0  0  0  0  0  0  0  0
   39.3240    7.7583   16.3262 C   0  0  0  0  0  0  0  0  0  0  0  0
   37.8186    7.4228   16.3025 C   0  0  0  0  0  0  0  0  0  0  0  0
   37.0920    8.0588   15.1001 C   0  0  0  0  0  0  0  0  0  0  0  0
   37.7568    7.6619   13.7721 C   0  0  0  0  0  0  0  0  0  0  0  0
   39.2551    8.0016   13.7795 C   0  0  0  0  0  0  0  0  0  0  0  0
   39.9694    7.3551   14.9801 C   0  0  0  0  0  0  0  0  0  0  0  0
   41.2080   17.1846   14.8438 H   0  0  0  0  0  0  0  0  0  0  0  0
   40.1944   15.8639   14.2846 H   0  0  0  0  0  0  0  0  0  0  0  0
   44.3969   11.1874   17.0663 H   0  0  0  0  0  0  0  0  0  0  0  0
   43.9755    8.8773   17.8505 H   0  0  0  0  0  0  0  0  0  0  0  0
   41.7184    7.9037   17.6872 H   0  0  0  0  0  0  0  0  0  0  0  0
   40.2421   11.5939   16.0243 H   0  0  0  0  0  0  0  0  0  0  0  0
   38.9122    9.7874   16.1088 H   0  0  0  0  0  0  0  0  0  0  0  0
   39.7747    7.1715   17.1264 H   0  0  0  0  0  0  0  0  0  0  0  0
   37.6972    6.3398   16.2575 H   0  0  0  0  0  0  0  0  0  0  0  0
   37.3475    7.7379   17.2344 H   0  0  0  0  0  0  0  0  0  0  0  0
   36.0450    7.7544   15.0943 H   0  0  0  0  0  0  0  0  0  0  0  0
   37.0937    9.1452   15.1956 H   0  0  0  0  0  0  0  0  0  0  0  0
   37.6265    6.5922   13.6039 H   0  0  0  0  0  0  0  0  0  0  0  0
   37.2639    8.1686   12.9417 H   0  0  0  0  0  0  0  0  0  0  0  0
   39.7181    7.6671   12.8509 H   0  0  0  0  0  0  0  0  0  0  0  0
   39.3808    9.0842   13.8156 H   0  0  0  0  0  0  0  0  0  0  0  0
   41.0292    7.6069   14.9629 H   0  0  0  0  0  0  0  0  0  0  0  0
   39.9277    6.2699   14.8763 H   0  0  0  0  0  0  0  0  0  0  0  0
  1  2  2  0
  2  3  1  0
  2  4  1  0
  4  5  1  0
  4 28  1  0
  4 29  1  0
  5  6  1  0
  6 11  2  0
  6  7  1  0
  7  8  1  0
  7  9  2  0
  9 10  1  0
  9 15  1  0
 10 11  1  0
 11 12  1  0
 12 13  2  0
 12 14  1  0
 15 20  1  0
 15 16  2  0
 16 17  1  0
 16 30  1  0
 17 18  2  0
 17 31  1  0
 18 19  1  0
 18 32  1  0
 19 20  2  0
 19 21  1  0
 20 33  1  0
 21 22  1  0
 21 34  1  0
 22 27  1  0
 22 23  1  0
 22 35  1  0
 23 24  1  0
 23 36  1  0
 23 37  1  0
 24 25  1  0
 24 38  1  0
 24 39  1  0
 25 26  1  0
 25 40  1  0
 25 41  1  0
 26 27  1  0
 26 42  1  0
 26 43  1  0
 27 44  1  0
 27 45  1  0
M  CHG  2   3  -1  14  -1
M  END
>  <s_m_entry_id>  (1) 
495

>  <i_f3d_flags>  (1) 
0

>  <r_epik_Ionization_Penalty>  (1) 
  0.0027

>  <r_epik_State_Penalty>  (1) 
  0.0018

>  <i_epik_Tot_Q>  (1) 
-2

>  <s_m_job_name>  (1) 
glide-dock_SP_ptp1b_core_cons

>  <r_i_docking_score>  (1) 
-7.29070739406073

>  <r_i_glide_gscore>  (1) 
-7.29250739406073

>  <r_i_glide_emodel>  (1) 
-92.7047637915822

>  <index_string>  (1) 
20:0:0

$$$$
