11:0:0
     RDKit          3D

 50 52  0  0  1  0  0  0  0  0999 V2000
   39.1952   17.5362   12.6837 O   0  0  0  0  0  0  0  0  0  0  0  0
   40.3587   17.0709   12.6888 C   0  0  0  0  0  0  0  0  0  0  0  0
   41.2223   17.3104   11.8136 O   0  0  0  0  0  0  0  0  0  0  0  0
   40.7508   16.1460   13.8463 C   0  0  0  0  0  0  0  0  0  0  0  0
   42.1070   15.7298   13.7386 O   0  0  0  0  0  0  0  0  0  0  0  0
   42.5193   14.9287   14.7459 C   0  0  0  0  0  0  0  0  0  0  0  0
   42.1638   13.5636   14.8772 C   0  0  0  0  0  0  0  0  0  0  0  0
   41.1783   12.6915   13.5375 Br  0  0  0  0  0  0  0  0  0  0  0  0
   42.6091   12.9398   16.0067 C   0  0  0  0  0  0  0  0  0  0  0  0
   42.3411   11.5905   16.4778 C   0  0  0  0  0  0  0  0  0  0  0  0
   43.3810   10.7596   16.9429 C   0  0  0  0  0  0  0  0  0  0  0  0
   43.1037    9.4533   17.3730 C   0  0  0  0  0  0  0  0  0  0  0  0
   41.7889    8.9605   17.3342 C   0  0  0  0  0  0  0  0  0  0  0  0
   40.7425    9.7775   16.8600 C   0  0  0  0  0  0  0  0  0  0  0  0
   39.4194    9.3428   16.7836 N   0  0  0  0  0  0  0  0  0  0  0  0
   39.0477    7.9494   16.9367 C   0  0  0  0  0  0  0  0  0  0  0  0
   37.5171    7.8041   16.9546 C   0  0  0  0  0  0  0  0  0  0  0  0
   36.8805    8.1494   15.5872 C   0  0  0  0  0  0  0  0  0  0  0  0
   37.5237    7.4217   14.4733 N   0  0  0  0  0  0  0  0  0  0  0  0
   36.6057    6.3118   13.4943 S   0  0  0  0  0  0  0  0  0  0  0  0
   35.2994    6.9277   13.2093 O   0  0  0  0  0  0  0  0  0  0  0  0
   37.4575    5.8699   12.3804 O   0  0  0  0  0  0  0  0  0  0  0  0
   36.3245    4.8888   14.6129 C   0  0  0  0  0  0  0  0  0  0  0  0
   39.0043    7.4379   14.4340 C   0  0  0  0  0  0  0  0  0  0  0  0
   39.6219    7.0868   15.7968 C   0  0  0  0  0  0  0  0  0  0  0  0
   41.0234   11.0913   16.4562 C   0  0  0  0  0  0  0  0  0  0  0  0
   43.6333   14.0163   16.9098 S   0  0  0  0  0  0  0  0  0  0  0  0
   43.3553   15.3164   15.7622 C   0  0  0  0  0  0  0  0  0  0  0  0
   44.0152   16.5938   16.0425 C   0  0  0  0  0  0  0  0  0  0  0  0
   43.8347   17.5550   15.2606 O   0  0  0  0  0  0  0  0  0  0  0  0
   44.7441   16.6863   17.0529 O   0  0  0  0  0  0  0  0  0  0  0  0
   40.6110   16.6852   14.7807 H   0  0  0  0  0  0  0  0  0  0  0  0
   40.0835   15.2908   13.8633 H   0  0  0  0  0  0  0  0  0  0  0  0
   44.3922   11.1296   16.9647 H   0  0  0  0  0  0  0  0  0  0  0  0
   43.9009    8.8292   17.7372 H   0  0  0  0  0  0  0  0  0  0  0  0
   41.6103    7.9511   17.6658 H   0  0  0  0  0  0  0  0  0  0  0  0
   38.6805   10.0323   16.6903 H   0  0  0  0  0  0  0  0  0  0  0  0
   39.4511    7.6216   17.8971 H   0  0  0  0  0  0  0  0  0  0  0  0
   37.2532    6.7798   17.2257 H   0  0  0  0  0  0  0  0  0  0  0  0
   37.0915    8.4393   17.7376 H   0  0  0  0  0  0  0  0  0  0  0  0
   35.8131    7.9307   15.6121 H   0  0  0  0  0  0  0  0  0  0  0  0
   36.9668    9.2203   15.3911 H   0  0  0  0  0  0  0  0  0  0  0  0
   35.6928    4.1546   14.1093 H   0  0  0  0  0  0  0  0  0  0  0  0
   37.2737    4.4313   14.8724 H   0  0  0  0  0  0  0  0  0  0  0  0
   39.3647    6.7465   13.6805 H   0  0  0  0  0  0  0  0  0  0  0  0
   39.3208    8.4292   14.1106 H   0  0  0  0  0  0  0  0  0  0  0  0
   40.7063    7.2070   15.7479 H   0  0  0  0  0  0  0  0  0  0  0  0
   39.4552    6.0396   16.0209 H   0  0  0  0  0  0  0  0  0  0  0  0
   40.2174   11.7200   16.1183 H   0  0  0  0  0  0  0  0  0  0  0  0
   35.8223    5.2338   15.5147 H   0  0  0  0  0  0  0  0  0  0  0  0
  1  2  2  0
  2  3  1  0
  2  4  1  0
  4  5  1  0
  4 32  1  0
  4 33  1  0
  5  6  1  0
  6  7  1  0
  6 28  2  0
  7  8  1  0
  7  9  2  0
  9 10  1  0
  9 27  1  0
 10 11  2  0
 10 26  1  0
 11 12  1  0
 11 34  1  0
 12 13  2  0
 12 35  1  0
 13 14  1  0
 13 36  1  0
 14 15  1  0
 14 26  2  0
 15 16  1  0
 15 37  1  0
 16 17  1  0
 16 25  1  0
 16 38  1  0
 17 18  1  0
 17 39  1  0
 17 40  1  0
 18 19  1  0
 18 41  1  0
 18 42  1  0
 19 20  1  0
 19 24  1  0
 20 21  2  0
 20 22  2  0
 20 23  1  0
 23 43  1  0
 23 44  1  0
 23 50  1  0
 24 25  1  0
 24 45  1  0
 24 46  1  0
 25 47  1  0
 25 48  1  0
 26 49  1  0
 27 28  1  0
 28 29  1  0
 29 30  2  0
 29 31  1  0
M  CHG  2   3  -1  31  -1
M  END
>  <s_m_entry_id>  (1) 
528

>  <s_m_Source_Path>  (1) 
/projects/mai/users/kmzp800_harry/pmx_colab/docking_jobs/ptp1b/glide-dock_SP_ptp1b_mcs_2

>  <s_m_Source_File>  (1) 
glide-dock_SP_ptp1b_mcs_2_pv.maegz

>  <i_m_Source_File_Index>  (1) 
13

>  <r_i_docking_score>  (1) 
-6.70929644471377

>  <r_i_glide_gscore>  (1) 
-6.70929644471377

>  <r_i_glide_emodel>  (1) 
-88.1263464896185

>  <index_string>  (1) 
11:0:0

$$$$
