22:0:0
     RDKit          3D

 37 39  0  0  1  0  0  0  0  0999 V2000
  -14.4260  -14.7540  -28.0720 C   0  0  0  0  0  0  0  0  0  0  0  0
  -14.8710  -15.5280  -26.9990 C   0  0  0  0  0  0  0  0  0  0  0  0
  -14.5810  -13.3660  -28.0350 C   0  0  0  0  0  0  0  0  0  0  0  0
  -15.5270  -14.9240  -25.9230 C   0  0  0  0  0  0  0  0  0  0  0  0
  -14.6270  -16.9100  -27.0080 N   0  0  0  0  0  0  0  0  0  0  0  0
  -15.2020  -12.7620  -26.9390 C   0  0  0  0  0  0  0  0  0  0  0  0
  -15.6820  -13.5420  -25.8830 C   0  0  0  0  0  0  0  0  0  0  0  0
  -16.0450  -15.8090  -24.8110 C   0  0  0  0  0  0  0  0  0  0  0  0
  -15.6570  -17.0970  -24.9720 N   0  0  0  0  0  0  0  0  0  0  0  0
  -16.7640  -15.4720  -23.8720 O   0  0  0  0  0  0  0  0  0  0  0  0
  -14.9770  -17.6750  -26.0250 C   0  0  0  0  0  0  0  0  0  0  0  0
  -16.2730  -12.9590  -24.8240 F   0  0  0  0  0  0  0  0  0  0  0  0
  -14.7300  -19.1290  -25.9930 C   0  0  0  0  0  0  0  0  0  0  0  0
  -14.0110  -19.6850  -24.9270 C   0  0  0  0  0  0  0  0  0  0  0  0
  -13.7930  -21.0530  -24.8620 C   0  0  0  0  0  0  0  0  0  0  0  0
  -14.2870  -21.8910  -25.8590 C   0  0  0  0  0  0  0  0  0  0  0  0
  -14.9870  -21.3420  -26.9370 C   0  0  0  0  0  0  0  0  0  0  0  0
  -15.2030  -19.9740  -27.0080 C   0  0  0  0  0  0  0  0  0  0  0  0
  -14.1720  -23.4110  -25.7320 C   0  0  0  0  0  0  0  0  0  0  0  0
  -13.1050  -23.8350  -24.7240 C   0  0  0  0  0  0  0  0  0  0  0  0
  -14.0070  -23.9850  -27.1350 C   0  0  0  0  0  0  0  0  0  0  0  0
  -15.3080  -24.0500  -25.2200 O   0  0  0  0  0  0  0  0  0  0  0  0
  -13.9556  -15.2346  -28.9425 H   0  0  0  0  0  0  0  0  0  0  0  0
  -14.2142  -12.7490  -28.8685 H   0  0  0  0  0  0  0  0  0  0  0  0
  -15.3137  -11.6682  -26.9069 H   0  0  0  0  0  0  0  0  0  0  0  0
  -15.9039  -17.7338  -24.2010 H   0  0  0  0  0  0  0  0  0  0  0  0
  -13.6162  -19.0313  -24.1353 H   0  0  0  0  0  0  0  0  0  0  0  0
  -13.2276  -21.4781  -24.0196 H   0  0  0  0  0  0  0  0  0  0  0  0
  -15.3685  -21.9983  -27.7331 H   0  0  0  0  0  0  0  0  0  0  0  0
  -15.7478  -19.5495  -27.8642 H   0  0  0  0  0  0  0  0  0  0  0  0
  -13.4848  -23.6841  -23.7027 H   0  0  0  0  0  0  0  0  0  0  0  0
  -12.8627  -24.8978  -24.8718 H   0  0  0  0  0  0  0  0  0  0  0  0
  -12.1993  -23.2284  -24.8718 H   0  0  0  0  0  0  0  0  0  0  0  0
  -13.7037  -25.0401  -27.0662 H   0  0  0  0  0  0  0  0  0  0  0  0
  -14.9623  -23.9126  -27.6755 H   0  0  0  0  0  0  0  0  0  0  0  0
  -13.2359  -23.4164  -27.6755 H   0  0  0  0  0  0  0  0  0  0  0  0
  -15.2783  -24.0333  -24.2306 H   0  0  0  0  0  0  0  0  0  0  0  0
  1  3  2  0
  1  2  1  0
  2  4  2  0
  2  5  1  0
  3  6  1  0
  4  7  1  0
  4  8  1  0
  5 11  2  0
  6  7  2  0
  7 12  1  0
  8 10  2  0
  8  9  1  0
  9 11  1  0
 11 13  1  0
 13 14  2  0
 13 18  1  0
 14 15  1  0
 15 16  2  0
 16 19  1  0
 16 17  1  0
 17 18  2  0
 19 22  1  0
 19 20  1  0
 19 21  1  0
  1 23  1  0
  3 24  1  0
  6 25  1  0
  9 26  1  0
 14 27  1  0
 15 28  1  0
 17 29  1  0
 18 30  1  0
 20 31  1  0
 20 32  1  0
 20 33  1  0
 21 34  1  0
 21 35  1  0
 21 36  1  0
 22 37  1  0
M  END
>  <s_m_entry_id>  (1) 
2483

>  <MODEL>  (1) 
2

>  <REMARK>  (1) 
 VINA RESULT:    -9.160      0.809      1.384
 INTER + INTRA:         -10.955
 INTER:                 -10.532
 INTRA:                  -0.423
 UNBOUND:                -0.456
  Name = 5b
  5 active torsions:
  status: ('A' for Active; 'I' for Inactive)
    1  A    between atoms: C_11  and  C_12
    2  A    between atoms: C_15  and  C_18
    3  A    between atoms: C_18  and  O_19
    4  A    between atoms: C_18  and  C_20
    5  A    between atoms: C_18  and  C_21
                            x       y       z     vdW  Elec       q    Type
                         _______ _______ _______ _____ _____    ______ ____

>  <TORSDO>  (1) 
F 3

>  <s_m_Source_Path>  (1) 
/projects/mai/users/kmzp800_harry/pmx_colab/docking_jobs/tnks2/vina_prep/output_mcs

>  <s_m_Source_File>  (1) 
tnks_mcs_vina__all_poses.sdf

>  <i_m_Source_File_Index>  (1) 
101

>  <index_string>  (1) 
22:0:0

$$$$
