1:0:0
     RDKit          3D

 37 39  0  0  1  0  0  0  0  0999 V2000
  -14.4720  -14.8320  -27.5510 C   0  0  0  0  0  0  0  0  0  0  0  0
  -15.0190  -15.6000  -26.5160 C   0  0  0  0  0  0  0  0  0  0  0  0
  -14.6880  -13.4580  -27.5560 C   0  0  0  0  0  0  0  0  0  0  0  0
  -15.7990  -15.0030  -25.5160 C   0  0  0  0  0  0  0  0  0  0  0  0
  -14.7710  -16.9700  -26.4920 N   0  0  0  0  0  0  0  0  0  0  0  0
  -15.4460  -12.8740  -26.5450 C   0  0  0  0  0  0  0  0  0  0  0  0
  -16.0140  -13.6290  -25.5240 C   0  0  0  0  0  0  0  0  0  0  0  0
  -16.4050  -15.8840  -24.4440 C   0  0  0  0  0  0  0  0  0  0  0  0
  -16.0400  -17.1850  -24.5980 N   0  0  0  0  0  0  0  0  0  0  0  0
  -17.1630  -15.5170  -23.5460 O   0  0  0  0  0  0  0  0  0  0  0  0
  -15.2510  -17.7480  -25.5860 C   0  0  0  0  0  0  0  0  0  0  0  0
  -13.7270  -15.3950  -28.5320 F   0  0  0  0  0  0  0  0  0  0  0  0
  -15.6470  -11.5590  -26.5660 F   0  0  0  0  0  0  0  0  0  0  0  0
  -15.0030  -19.1950  -25.6160 C   0  0  0  0  0  0  0  0  0  0  0  0
  -13.7430  -19.7390  -25.3450 C   0  0  0  0  0  0  0  0  0  0  0  0
  -13.5490  -21.1100  -25.4470 C   0  0  0  0  0  0  0  0  0  0  0  0
  -14.6110  -21.9500  -25.7990 C   0  0  0  0  0  0  0  0  0  0  0  0
  -15.8710  -21.4120  -26.0320 C   0  0  0  0  0  0  0  0  0  0  0  0
  -16.0670  -20.0490  -25.9410 C   0  0  0  0  0  0  0  0  0  0  0  0
  -14.3670  -23.4360  -26.0260 C   0  0  0  0  0  0  0  0  0  0  0  0
  -15.6410  -24.1540  -26.4490 C   0  0  0  0  0  0  0  0  0  0  0  0
  -13.6930  -23.9880  -24.7740 C   0  0  0  0  0  0  0  0  0  0  0  0
  -13.5010  -23.7410  -27.0880 O   0  0  0  0  0  0  0  0  0  0  0  0
  -14.2614  -12.8351  -28.3560 H   0  0  0  0  0  0  0  0  0  0  0  0
  -16.6196  -13.1500  -24.7405 H   0  0  0  0  0  0  0  0  0  0  0  0
  -16.3978  -17.8372  -23.8856 H   0  0  0  0  0  0  0  0  0  0  0  0
  -12.9096  -19.0834  -25.0524 H   0  0  0  0  0  0  0  0  0  0  0  0
  -12.5550  -21.5380  -25.2500 H   0  0  0  0  0  0  0  0  0  0  0  0
  -16.7121  -22.0726  -26.2890 H   0  0  0  0  0  0  0  0  0  0  0  0
  -17.0667  -19.6286  -26.1250 H   0  0  0  0  0  0  0  0  0  0  0  0
  -16.1989  -24.4684  -25.5546 H   0  0  0  0  0  0  0  0  0  0  0  0
  -16.2633  -23.4738  -27.0490 H   0  0  0  0  0  0  0  0  0  0  0  0
  -15.3814  -25.0386  -27.0490 H   0  0  0  0  0  0  0  0  0  0  0  0
  -14.1896  -23.5813  -23.8807 H   0  0  0  0  0  0  0  0  0  0  0  0
  -13.7708  -25.0852  -24.7692 H   0  0  0  0  0  0  0  0  0  0  0  0
  -12.6326  -23.6955  -24.7692 H   0  0  0  0  0  0  0  0  0  0  0  0
  -12.6314  -24.0473  -26.7272 H   0  0  0  0  0  0  0  0  0  0  0  0
  1  2  2  0
  1  3  1  0
  1 12  1  0
  2  5  1  0
  2  4  1  0
  3  6  2  0
  4  8  1  0
  4  7  2  0
  5 11  2  0
  6  7  1  0
  6 13  1  0
  8 10  2  0
  8  9  1  0
  9 11  1  0
 11 14  1  0
 14 15  2  0
 14 19  1  0
 15 16  1  0
 16 17  2  0
 17 18  1  0
 17 20  1  0
 18 19  2  0
 20 22  1  0
 20 21  1  0
 20 23  1  0
  3 24  1  0
  7 25  1  0
  9 26  1  0
 15 27  1  0
 16 28  1  0
 18 29  1  0
 19 30  1  0
 21 31  1  0
 21 32  1  0
 21 33  1  0
 22 34  1  0
 22 35  1  0
 22 36  1  0
 23 37  1  0
M  END
>  <s_m_entry_id>  (1) 
2387

>  <MODEL>  (1) 
2

>  <REMARK>  (1) 
 VINA RESULT:    -9.730      0.853      1.062
 INTER + INTRA:         -11.598
 INTER:                 -11.152
 INTRA:                  -0.446
 UNBOUND:                -0.446
  Name = 5k
  5 active torsions:
  status: ('A' for Active; 'I' for Inactive)
    1  A    between atoms: C_11  and  C_12
    2  A    between atoms: C_15  and  C_18
    3  A    between atoms: C_18  and  O_19
    4  A    between atoms: C_18  and  C_22
    5  A    between atoms: C_18  and  C_23
                            x       y       z     vdW  Elec       q    Type
                         _______ _______ _______ _____ _____    ______ ____

>  <TORSDO>  (1) 
F 3

>  <s_m_Source_Path>  (1) 
/projects/mai/users/kmzp800_harry/pmx_colab/docking_jobs/tnks2/vina_prep/output_mcs

>  <s_m_Source_File>  (1) 
tnks_mcs_vina__all_poses.sdf

>  <i_m_Source_File_Index>  (1) 
5

>  <index_string>  (1) 
1:0:0

$$$$
