19:0:0
     RDKit          3D

 48 51  0  0  1  0  0  0  0  0999 V2000
   -4.5281   -3.2211   15.5134 C   0  0  0  0  0  0  0  0  0  0  0  0
   -3.8812   -2.2878   14.6614 O   0  0  0  0  0  0  0  0  0  0  0  0
   -2.5267   -2.0989   14.8177 C   0  0  0  0  0  0  0  0  0  0  0  0
   -1.7306   -2.8541   15.7064 C   0  0  0  0  0  0  0  0  0  0  0  0
   -0.3575   -2.6007   15.8181 C   0  0  0  0  0  0  0  0  0  0  0  0
    0.2500   -1.5765   15.0722 C   0  0  0  0  0  0  0  0  0  0  0  0
    1.6206   -1.3592   15.2870 N   0  0  0  0  0  0  0  0  0  0  0  0
    2.5301   -0.4379   14.7282 C   0  0  0  0  0  0  0  0  0  0  0  0
    2.1924    0.3710   13.7530 N   0  0  0  0  0  0  0  0  0  0  0  0
    3.1209    1.2496   13.2288 C   0  0  0  0  0  0  0  0  0  0  0  0
    4.4238    1.2809   13.6729 C   0  0  0  0  0  0  0  0  0  0  0  0
    4.7581    0.4836   14.7194 N   0  0  0  0  0  0  0  0  0  0  0  0
    5.9051    0.3806   15.4821 C   0  0  0  0  0  0  0  0  0  0  0  0
    5.6030   -0.4954   16.4945 C   0  0  0  0  0  0  0  0  0  0  0  0
    4.3571   -1.0573   16.3251 N   0  0  0  0  0  0  0  0  0  0  0  0
    3.8309   -0.4126   15.2881 C   0  0  0  0  0  0  0  0  0  0  0  0
    2.6539    2.1651   12.1572 C   0  0  0  0  0  0  0  0  0  0  0  0
    3.5693    2.6667   11.1953 C   0  0  0  0  0  0  0  0  0  0  0  0
    3.1602    3.4912   10.1370 C   0  0  0  0  0  0  0  0  0  0  0  0
    1.8109    3.8543   10.0347 C   0  0  0  0  0  0  0  0  0  0  0  0
    1.4251    4.6407    9.0000 F   0  0  0  0  0  0  0  0  0  0  0  0
    0.8773    3.3982   11.0027 C   0  0  0  0  0  0  0  0  0  0  0  0
    1.2981    2.5492   12.0537 C   0  0  0  0  0  0  0  0  0  0  0  0
   -0.5718    3.7560   10.8912 C   0  0  0  0  0  0  0  0  0  0  0  0
   -1.4584    2.9839   11.2128 O   0  0  0  0  0  0  0  0  0  0  0  0
   -0.8558    4.9719   10.4411 N   0  0  0  0  0  0  0  0  0  0  0  0
   -0.5433   -0.8250   14.1799 C   0  0  0  0  0  0  0  0  0  0  0  0
   -1.9258   -1.0841   14.0420 C   0  0  0  0  0  0  0  0  0  0  0  0
   -2.7450   -0.3699   13.1953 O   0  0  0  0  0  0  0  0  0  0  0  0
   -2.1891    0.6551   12.3991 C   0  0  0  0  0  0  0  0  0  0  0  0
   -5.5900   -3.2498   15.2700 H   0  0  0  0  0  0  0  0  0  0  0  0
   -4.1340   -4.2297   15.3797 H   0  0  0  0  0  0  0  0  0  0  0  0
   -4.4372   -2.9334   16.5619 H   0  0  0  0  0  0  0  0  0  0  0  0
   -2.1473   -3.6318   16.3218 H   0  0  0  0  0  0  0  0  0  0  0  0
    0.2282   -3.1979   16.5011 H   0  0  0  0  0  0  0  0  0  0  0  0
    2.0725   -2.0242   15.9047 H   0  0  0  0  0  0  0  0  0  0  0  0
    5.1964    1.9394   13.2945 H   0  0  0  0  0  0  0  0  0  0  0  0
    6.7731    0.9802   15.2343 H   0  0  0  0  0  0  0  0  0  0  0  0
    6.1553   -0.7583   17.3553 H   0  0  0  0  0  0  0  0  0  0  0  0
    4.6118    2.4008   11.2415 H   0  0  0  0  0  0  0  0  0  0  0  0
    3.8805    3.8363    9.4101 H   0  0  0  0  0  0  0  0  0  0  0  0
    0.5888    2.1764   12.7833 H   0  0  0  0  0  0  0  0  0  0  0  0
   -1.8215    5.2459   10.3498 H   0  0  0  0  0  0  0  0  0  0  0  0
   -0.1024    5.5835   10.1608 H   0  0  0  0  0  0  0  0  0  0  0  0
   -0.0922   -0.0412   13.6013 H   0  0  0  0  0  0  0  0  0  0  0  0
   -2.9816    1.0982   11.7909 H   0  0  0  0  0  0  0  0  0  0  0  0
   -1.7702    1.4485   13.0221 H   0  0  0  0  0  0  0  0  0  0  0  0
   -1.4218    0.2914   11.7133 H   0  0  0  0  0  0  0  0  0  0  0  0
  1  2  1  0
  1 31  1  0
  1 32  1  0
  1 33  1  0
  2  3  1  0
  3  4  2  0
  3 28  1  0
  4  5  1  0
  4 34  1  0
  5  6  2  0
  5 35  1  0
  6  7  1  0
  6 27  1  0
  7  8  1  0
  7 36  1  0
  8  9  2  0
  8 16  1  0
  9 10  1  0
 10 11  2  0
 10 17  1  0
 11 12  1  0
 11 37  1  0
 12 13  1  0
 12 16  1  0
 13 14  2  0
 13 38  1  0
 14 15  1  0
 14 39  1  0
 15 16  2  0
 17 18  2  0
 17 23  1  0
 18 19  1  0
 18 40  1  0
 19 20  2  0
 19 41  1  0
 20 21  1  0
 20 22  1  0
 22 23  2  0
 22 24  1  0
 23 42  1  0
 24 25  2  0
 24 26  1  0
 26 43  1  0
 26 44  1  0
 27 28  2  0
 27 45  1  0
 28 29  1  0
 29 30  1  0
 30 46  1  0
 30 47  1  0
 30 48  1  0
M  END
>  <s_m_entry_id>  (1) 
1098

>  <IC50[nM]>  (1) 
67.3

>  <s_m_Source_Path>  (1) 
/projects/mai/users/kmzp800_harry/pmx_colab/docking_jobs/syk

>  <s_m_Source_File>  (1) 
tnks2_lig.sdf

>  <i_m_Source_File_Index>  (1) 
21

>  <s_m_job_name>  (1) 
glide-dock_SP_syk_mcs

>  <r_i_docking_score>  (1) 
-6.87304688734537

>  <r_i_glide_gscore>  (1) 
-6.87304688734537

>  <r_i_glide_emodel>  (1) 
-48.7664088401436

>  <index_string>  (1) 
19:0:0

$$$$
