34:0:0
     RDKit          3D

 64 68  0  0  1  0  0  0  0  0999 V2000
    0.3555    9.9517   10.3484 C   0  0  0  0  0  0  0  0  0  0  0  0
   -0.2145    8.7664    9.5307 C   0  0  0  0  0  0  0  0  0  0  0  0
   -1.7330    8.6894    9.7904 C   0  0  0  0  0  0  0  0  0  0  0  0
    0.0353    9.0791    8.0368 C   0  0  0  0  0  0  0  0  0  0  0  0
    0.4282    7.4189    9.9124 C   0  0  0  0  0  0  0  0  0  0  0  0
    1.2512    7.2803   11.0570 C   0  0  0  0  0  0  0  0  0  0  0  0
    1.8179    6.0385   11.3930 C   0  0  0  0  0  0  0  0  0  0  0  0
    1.6113    4.9064   10.5752 C   0  0  0  0  0  0  0  0  0  0  0  0
    2.1678    3.6519   10.8717 N   0  0  0  0  0  0  0  0  0  0  0  0
    3.2455    3.3678   11.7199 C   0  0  0  0  0  0  0  0  0  0  0  0
    3.1311    2.2610   12.3943 N   0  0  0  0  0  0  0  0  0  0  0  0
    4.1130    1.8909   13.2886 C   0  0  0  0  0  0  0  0  0  0  0  0
    5.2319    2.6610   13.4902 C   0  0  0  0  0  0  0  0  0  0  0  0
    5.3799    3.7783   12.7452 N   0  0  0  0  0  0  0  0  0  0  0  0
    6.4143    4.6858   12.6929 C   0  0  0  0  0  0  0  0  0  0  0  0
    6.0563    5.6039   11.7538 C   0  0  0  0  0  0  0  0  0  0  0  0
    4.8301    5.2969   11.1855 N   0  0  0  0  0  0  0  0  0  0  0  0
    4.4108    4.1930   11.8057 C   0  0  0  0  0  0  0  0  0  0  0  0
    3.8631    0.6705   14.0953 C   0  0  0  0  0  0  0  0  0  0  0  0
    4.8301    0.1937   15.0173 C   0  0  0  0  0  0  0  0  0  0  0  0
    4.5060   -0.7962   15.9581 C   0  0  0  0  0  0  0  0  0  0  0  0
    3.2266   -1.3745   15.9558 C   0  0  0  0  0  0  0  0  0  0  0  0
    2.2695   -0.9847   15.0045 C   0  0  0  0  0  0  0  0  0  0  0  0
    1.0179   -1.6546   15.0247 N   0  0  0  0  0  0  0  0  0  0  0  0
   -0.1761   -1.1974   14.6059 C   0  0  0  0  0  0  0  0  0  0  0  0
   -0.3706   -0.0447   14.2173 O   0  0  0  0  0  0  0  0  0  0  0  0
   -1.3045   -2.1966   14.5940 C   0  0  0  0  0  0  0  0  0  0  0  0
   -2.5385   -1.8393   14.0039 C   0  0  0  0  0  0  0  0  0  0  0  0
   -3.5497   -2.7999   13.8186 C   0  0  0  0  0  0  0  0  0  0  0  0
   -3.3459   -4.1372   14.2174 C   0  0  0  0  0  0  0  0  0  0  0  0
   -2.1569   -4.4740   14.8998 C   0  0  0  0  0  0  0  0  0  0  0  0
   -1.1458   -3.5133   15.0918 C   0  0  0  0  0  0  0  0  0  0  0  0
   -4.3300   -5.2003   13.8181 C   0  0  0  0  0  0  0  0  0  0  0  0
   -5.4595   -4.8609   13.4018 O   0  0  0  0  0  0  0  0  0  0  0  0
   -3.9590   -6.3963   13.8179 O   0  0  0  0  0  0  0  0  0  0  0  0
    2.6032    0.0180   14.0653 C   0  0  0  0  0  0  0  0  0  0  0  0
    0.7712    5.0282    9.4491 C   0  0  0  0  0  0  0  0  0  0  0  0
    0.1829    6.2669    9.1252 C   0  0  0  0  0  0  0  0  0  0  0  0
   -0.0807   10.9002   10.0337 H   0  0  0  0  0  0  0  0  0  0  0  0
    1.4370   10.0380   10.2234 H   0  0  0  0  0  0  0  0  0  0  0  0
    0.1520    9.8494   11.4147 H   0  0  0  0  0  0  0  0  0  0  0  0
   -2.2018    7.9082    9.1924 H   0  0  0  0  0  0  0  0  0  0  0  0
   -1.9400    8.4691   10.8386 H   0  0  0  0  0  0  0  0  0  0  0  0
   -2.2273    9.6310    9.5438 H   0  0  0  0  0  0  0  0  0  0  0  0
   -0.4324    8.3512    7.3740 H   0  0  0  0  0  0  0  0  0  0  0  0
   -0.3658   10.0553    7.7631 H   0  0  0  0  0  0  0  0  0  0  0  0
    1.1037    9.0910    7.8131 H   0  0  0  0  0  0  0  0  0  0  0  0
    1.4721    8.1118   11.7100 H   0  0  0  0  0  0  0  0  0  0  0  0
    2.4165    5.9818   12.2898 H   0  0  0  0  0  0  0  0  0  0  0  0
    1.5781    2.8595   10.6678 H   0  0  0  0  0  0  0  0  0  0  0  0
    6.0320    2.4530   14.1880 H   0  0  0  0  0  0  0  0  0  0  0  0
    7.2977    4.5680   13.3010 H   0  0  0  0  0  0  0  0  0  0  0  0
    6.6180    6.4649   11.4175 H   0  0  0  0  0  0  0  0  0  0  0  0
    5.8212    0.6132   15.0746 H   0  0  0  0  0  0  0  0  0  0  0  0
    5.2455   -1.1197   16.6773 H   0  0  0  0  0  0  0  0  0  0  0  0
    2.9783   -2.1396   16.6757 H   0  0  0  0  0  0  0  0  0  0  0  0
    1.0224   -2.5753   15.4372 H   0  0  0  0  0  0  0  0  0  0  0  0
   -2.6913   -0.8408   13.6216 H   0  0  0  0  0  0  0  0  0  0  0  0
   -4.4541   -2.5242   13.2968 H   0  0  0  0  0  0  0  0  0  0  0  0
   -1.9889   -5.4906   15.2272 H   0  0  0  0  0  0  0  0  0  0  0  0
   -0.2333   -3.8347   15.5726 H   0  0  0  0  0  0  0  0  0  0  0  0
    1.8648    0.3281   13.3421 H   0  0  0  0  0  0  0  0  0  0  0  0
    0.5745    4.1701    8.8216 H   0  0  0  0  0  0  0  0  0  0  0  0
   -0.4604    6.3223    8.2572 H   0  0  0  0  0  0  0  0  0  0  0  0
  1  2  1  0
  1 39  1  0
  1 40  1  0
  1 41  1  0
  2  3  1  0
  2  4  1  0
  2  5  1  0
  3 42  1  0
  3 43  1  0
  3 44  1  0
  4 45  1  0
  4 46  1  0
  4 47  1  0
  5  6  2  0
  5 38  1  0
  6  7  1  0
  6 48  1  0
  7  8  2  0
  7 49  1  0
  8  9  1  0
  8 37  1  0
  9 10  1  0
  9 50  1  0
 10 11  2  0
 10 18  1  0
 11 12  1  0
 12 13  2  0
 12 19  1  0
 13 14  1  0
 13 51  1  0
 14 15  1  0
 14 18  1  0
 15 16  2  0
 15 52  1  0
 16 17  1  0
 16 53  1  0
 17 18  2  0
 19 20  2  0
 19 36  1  0
 20 21  1  0
 20 54  1  0
 21 22  2  0
 21 55  1  0
 22 23  1  0
 22 56  1  0
 23 24  1  0
 23 36  2  0
 24 25  1  0
 24 57  1  0
 25 26  2  0
 25 27  1  0
 27 28  2  0
 27 32  1  0
 28 29  1  0
 28 58  1  0
 29 30  2  0
 29 59  1  0
 30 31  1  0
 30 33  1  0
 31 32  2  0
 31 60  1  0
 32 61  1  0
 33 34  2  0
 33 35  1  0
 36 62  1  0
 37 38  2  0
 37 63  1  0
 38 64  1  0
M  CHG  1  35  -1
M  END
>  <s_m_entry_id>  (1) 
714

>  <IC50[nM]>  (1) 
65

>  <s_m_Source_Path>  (1) 
/projects/mai/users/kmzp800_harry/pmx_colab/docking_jobs/syk

>  <s_m_Source_File>  (1) 
tnks2_lig.sdf

>  <i_m_Source_File_Index>  (1) 
35

>  <s_m_job_name>  (1) 
glide-dock_SP_tnks2_no_const

>  <r_i_docking_score>  (1) 
-6.61937865799279

>  <r_i_glide_gscore>  (1) 
-6.61937865799279

>  <r_i_glide_emodel>  (1) 
-73.7154730453125

>  <index_string>  (1) 
34:0:0

$$$$
