1:0:0
     RDKit          3D

 37 39  0  0  1  0  0  0  0  0999 V2000
  -14.5170  -14.9010  -27.4620 C   0  0  0  0  0  0  0  0  0  0  0  0
  -14.9700  -15.7300  -26.4290 C   0  0  0  0  0  0  0  0  0  0  0  0
  -14.7720  -13.5350  -27.3900 C   0  0  0  0  0  0  0  0  0  0  0  0
  -15.6960  -15.2020  -25.3520 C   0  0  0  0  0  0  0  0  0  0  0  0
  -14.6810  -17.0910  -26.4850 N   0  0  0  0  0  0  0  0  0  0  0  0
  -15.4760  -13.0210  -26.3040 C   0  0  0  0  0  0  0  0  0  0  0  0
  -15.9500  -13.8370  -25.2830 C   0  0  0  0  0  0  0  0  0  0  0  0
  -16.2010  -16.1490  -24.2840 C   0  0  0  0  0  0  0  0  0  0  0  0
  -15.8100  -17.4290  -24.5210 N   0  0  0  0  0  0  0  0  0  0  0  0
  -16.9060  -15.8460  -23.3200 O   0  0  0  0  0  0  0  0  0  0  0  0
  -15.0750  -17.9230  -25.5850 C   0  0  0  0  0  0  0  0  0  0  0  0
  -13.8260  -15.3960  -28.5160 F   0  0  0  0  0  0  0  0  0  0  0  0
  -15.7150  -11.7130  -26.2510 F   0  0  0  0  0  0  0  0  0  0  0  0
  -14.7890  -19.3590  -25.6980 C   0  0  0  0  0  0  0  0  0  0  0  0
  -14.2950  -20.1050  -24.6220 C   0  0  0  0  0  0  0  0  0  0  0  0
  -13.9840  -21.4460  -24.8000 C   0  0  0  0  0  0  0  0  0  0  0  0
  -14.1800  -22.0580  -26.0430 C   0  0  0  0  0  0  0  0  0  0  0  0
  -14.7050  -21.3250  -27.1000 C   0  0  0  0  0  0  0  0  0  0  0  0
  -15.0080  -19.9900  -26.9310 C   0  0  0  0  0  0  0  0  0  0  0  0
  -13.7270  -23.4950  -26.2680 C   0  0  0  0  0  0  0  0  0  0  0  0
  -12.7600  -23.6000  -27.4380 C   0  0  0  0  0  0  0  0  0  0  0  0
  -14.9790  -24.3600  -26.3770 C   0  0  0  0  0  0  0  0  0  0  0  0
  -12.9730  -24.0510  -25.2220 O   0  0  0  0  0  0  0  0  0  0  0  0
  -14.4191  -12.8643  -28.1872 H   0  0  0  0  0  0  0  0  0  0  0  0
  -16.5135  -13.4119  -24.4393 H   0  0  0  0  0  0  0  0  0  0  0  0
  -16.0985  -18.1226  -23.8163 H   0  0  0  0  0  0  0  0  0  0  0  0
  -14.1538  -19.6308  -23.6396 H   0  0  0  0  0  0  0  0  0  0  0  0
  -13.5814  -22.0306  -23.9597 H   0  0  0  0  0  0  0  0  0  0  0  0
  -14.8791  -21.8095  -28.0721 H   0  0  0  0  0  0  0  0  0  0  0  0
  -15.4252  -19.4152  -27.7710 H   0  0  0  0  0  0  0  0  0  0  0  0
  -11.7341  -23.7114  -27.0570 H   0  0  0  0  0  0  0  0  0  0  0  0
  -13.0203  -24.4752  -28.0515 H   0  0  0  0  0  0  0  0  0  0  0  0
  -12.8264  -22.6894  -28.0515 H   0  0  0  0  0  0  0  0  0  0  0  0
  -15.3409  -24.6100  -25.3688 H   0  0  0  0  0  0  0  0  0  0  0  0
  -15.7599  -23.8079  -26.9204 H   0  0  0  0  0  0  0  0  0  0  0  0
  -14.7389  -25.2858  -26.9204 H   0  0  0  0  0  0  0  0  0  0  0  0
  -13.3554  -23.7690  -24.3535 H   0  0  0  0  0  0  0  0  0  0  0  0
  1  3  2  0
  1  2  1  0
  1 12  1  0
  2  4  2  0
  2  5  1  0
  3  6  1  0
  4  7  1  0
  4  8  1  0
  5 11  2  0
  6 13  1  0
  6  7  2  0
  8 10  2  0
  8  9  1  0
  9 11  1  0
 11 14  1  0
 14 15  2  0
 14 19  1  0
 15 16  1  0
 16 17  2  0
 17 18  1  0
 17 20  1  0
 18 19  2  0
 20 23  1  0
 20 21  1  0
 20 22  1  0
  3 24  1  0
  7 25  1  0
  9 26  1  0
 15 27  1  0
 16 28  1  0
 18 29  1  0
 19 30  1  0
 21 31  1  0
 21 32  1  0
 21 33  1  0
 22 34  1  0
 22 35  1  0
 22 36  1  0
 23 37  1  0
M  END
>  <s_m_entry_id>  (1) 
2329

>  <MODEL>  (1) 
1

>  <REMARK>  (1) 
 VINA RESULT:   -11.461      0.000      0.000
 INTER + INTRA:         -13.595
 INTER:                 -13.136
 INTRA:                  -0.459
 UNBOUND:                -0.459
  Name = 5k
  5 active torsions:
  status: ('A' for Active; 'I' for Inactive)
    1  A    between atoms: C_11  and  C_12
    2  A    between atoms: C_15  and  C_18
    3  A    between atoms: C_18  and  O_19
    4  A    between atoms: C_18  and  C_22
    5  A    between atoms: C_18  and  C_23
                            x       y       z     vdW  Elec       q    Type
                         _______ _______ _______ _____ _____    ______ ____

>  <TORSDO>  (1) 
F 3

>  <s_m_Source_Path>  (1) 
/projects/mai/users/kmzp800_harry/pmx_colab/docking_jobs/tnks2/vina_prep/output

>  <s_m_Source_File>  (1) 
tnks_naive_vina.sdf

>  <i_m_Source_File_Index>  (1) 
2

>  <index_string>  (1) 
1:0:0

$$$$
