5:0:0
     RDKit          3D

 48 51  0  0  1  0  0  0  0  0999 V2000
   -3.8831   -1.7736   14.9728 C   0  0  0  0  0  0  0  0  0  0  0  0
   -3.3540   -0.8013   14.0817 O   0  0  0  0  0  0  0  0  0  0  0  0
   -1.9812   -0.7103   13.9584 C   0  0  0  0  0  0  0  0  0  0  0  0
   -1.0757   -1.5164   14.6900 C   0  0  0  0  0  0  0  0  0  0  0  0
    0.3118   -1.3455   14.5474 C   0  0  0  0  0  0  0  0  0  0  0  0
    0.8288   -0.3757   13.6680 C   0  0  0  0  0  0  0  0  0  0  0  0
    2.2261   -0.2670   13.5778 N   0  0  0  0  0  0  0  0  0  0  0  0
    3.0230    0.8854   13.4866 C   0  0  0  0  0  0  0  0  0  0  0  0
    2.6297    1.9137   12.7891 N   0  0  0  0  0  0  0  0  0  0  0  0
    3.4258    3.0356   12.7447 C   0  0  0  0  0  0  0  0  0  0  0  0
    4.6338    3.1289   13.3942 C   0  0  0  0  0  0  0  0  0  0  0  0
    5.0356    2.0568   14.1236 N   0  0  0  0  0  0  0  0  0  0  0  0
    6.1509    1.8335   14.9102 C   0  0  0  0  0  0  0  0  0  0  0  0
    6.0302    0.5697   15.4175 C   0  0  0  0  0  0  0  0  0  0  0  0
    4.8309    0.0039   15.0174 N   0  0  0  0  0  0  0  0  0  0  0  0
    4.2538    0.8854   14.2045 C   0  0  0  0  0  0  0  0  0  0  0  0
    2.9000    4.1610   11.9557 C   0  0  0  0  0  0  0  0  0  0  0  0
    2.8793    5.4657   12.4909 C   0  0  0  0  0  0  0  0  0  0  0  0
    2.4124    6.5524   11.7283 C   0  0  0  0  0  0  0  0  0  0  0  0
    1.9593    6.3625   10.4034 C   0  0  0  0  0  0  0  0  0  0  0  0
    1.4560    7.5280    9.5911 C   0  0  0  0  0  0  0  0  0  0  0  0
    0.5882    7.3919    8.7315 O   0  0  0  0  0  0  0  0  0  0  0  0
    2.0304    8.7120    9.8176 N   0  0  0  0  0  0  0  0  0  0  0  0
    1.9531    5.0487    9.8738 C   0  0  0  0  0  0  0  0  0  0  0  0
    1.5119    4.8022    8.6176 F   0  0  0  0  0  0  0  0  0  0  0  0
    2.4232    3.9668   10.6423 C   0  0  0  0  0  0  0  0  0  0  0  0
   -0.0716    0.4104   12.9144 C   0  0  0  0  0  0  0  0  0  0  0  0
   -1.4758    0.2566   13.0600 C   0  0  0  0  0  0  0  0  0  0  0  0
   -2.4047    1.0115   12.3721 O   0  0  0  0  0  0  0  0  0  0  0  0
   -1.9324    1.9291   11.3956 C   0  0  0  0  0  0  0  0  0  0  0  0
   -4.9716   -1.7274   14.9510 H   0  0  0  0  0  0  0  0  0  0  0  0
   -3.5934   -2.7830   14.6797 H   0  0  0  0  0  0  0  0  0  0  0  0
   -3.5705   -1.5889   16.0006 H   0  0  0  0  0  0  0  0  0  0  0  0
   -1.4166   -2.2698   15.3830 H   0  0  0  0  0  0  0  0  0  0  0  0
    0.9805   -1.9675   15.1255 H   0  0  0  0  0  0  0  0  0  0  0  0
    2.7093   -0.9713   14.1180 H   0  0  0  0  0  0  0  0  0  0  0  0
    5.2723    4.0060   13.3783 H   0  0  0  0  0  0  0  0  0  0  0  0
    6.9180    2.5864   15.0113 H   0  0  0  0  0  0  0  0  0  0  0  0
    6.7004    0.0208   16.0665 H   0  0  0  0  0  0  0  0  0  0  0  0
    3.2259    5.6401   13.5006 H   0  0  0  0  0  0  0  0  0  0  0  0
    2.4128    7.5375   12.1764 H   0  0  0  0  0  0  0  0  0  0  0  0
    1.7393    9.5142    9.2841 H   0  0  0  0  0  0  0  0  0  0  0  0
    2.7477    8.8258   10.5383 H   0  0  0  0  0  0  0  0  0  0  0  0
    2.4280    2.9753   10.2123 H   0  0  0  0  0  0  0  0  0  0  0  0
    0.3257    1.1315   12.2199 H   0  0  0  0  0  0  0  0  0  0  0  0
   -2.7822    2.4117   10.9131 H   0  0  0  0  0  0  0  0  0  0  0  0
   -1.3209    2.7136   11.8461 H   0  0  0  0  0  0  0  0  0  0  0  0
   -1.3556    1.4235   10.6188 H   0  0  0  0  0  0  0  0  0  0  0  0
  1  2  1  0
  1 31  1  0
  1 32  1  0
  1 33  1  0
  2  3  1  0
  3  4  2  0
  3 28  1  0
  4  5  1  0
  4 34  1  0
  5  6  2  0
  5 35  1  0
  6  7  1  0
  6 27  1  0
  7  8  1  0
  7 36  1  0
  8  9  2  0
  8 16  1  0
  9 10  1  0
 10 11  2  0
 10 17  1  0
 11 12  1  0
 11 37  1  0
 12 13  1  0
 12 16  1  0
 13 14  2  0
 13 38  1  0
 14 15  1  0
 14 39  1  0
 15 16  2  0
 17 18  2  0
 17 26  1  0
 18 19  1  0
 18 40  1  0
 19 20  2  0
 19 41  1  0
 20 21  1  0
 20 24  1  0
 21 22  2  0
 21 23  1  0
 23 42  1  0
 23 43  1  0
 24 25  1  0
 24 26  2  0
 26 44  1  0
 27 28  2  0
 27 45  1  0
 28 29  1  0
 29 30  1  0
 30 46  1  0
 30 47  1  0
 30 48  1  0
M  END
>  <s_m_entry_id>  (1) 
685

>  <IC50[nM]>  (1) 
18.6

>  <s_m_Source_Path>  (1) 
/projects/mai/users/kmzp800_harry/pmx_colab/docking_jobs/syk

>  <s_m_Source_File>  (1) 
tnks2_lig.sdf

>  <i_m_Source_File_Index>  (1) 
6

>  <s_m_job_name>  (1) 
glide-dock_SP_tnks2_no_const

>  <r_i_docking_score>  (1) 
-6.982923102328

>  <r_i_glide_gscore>  (1) 
-6.982923102328

>  <r_i_glide_emodel>  (1) 
-66.9851828722724

>  <index_string>  (1) 
5:0:0

$$$$
