16:0:0
     RDKit          3D

 37 39  0  0  1  0  0  0  0  0999 V2000
  -14.4617  -14.7587  -27.6418 C   0  0  0  0  0  0  0  0  0  0  0  0
  -15.0321  -15.6163  -26.6822 C   0  0  0  0  0  0  0  0  0  0  0  0
  -14.5572  -13.3751  -27.5414 C   0  0  0  0  0  0  0  0  0  0  0  0
  -15.7498  -15.0275  -25.6110 C   0  0  0  0  0  0  0  0  0  0  0  0
  -14.8485  -17.0031  -26.7601 N   0  0  0  0  0  0  0  0  0  0  0  0
  -15.2535  -12.7993  -26.4806 C   0  0  0  0  0  0  0  0  0  0  0  0
  -15.8656  -13.6223  -25.5106 C   0  0  0  0  0  0  0  0  0  0  0  0
  -16.3670  -15.9498  -24.6038 C   0  0  0  0  0  0  0  0  0  0  0  0
  -16.1246  -17.2450  -24.8120 N   0  0  0  0  0  0  0  0  0  0  0  0
  -17.0505  -15.5737  -23.6589 O   0  0  0  0  0  0  0  0  0  0  0  0
  -15.3669  -17.7786  -25.8526 C   0  0  0  0  0  0  0  0  0  0  0  0
  -15.2026  -19.2515  -25.9333 C   0  0  0  0  0  0  0  0  0  0  0  0
  -15.4433  -20.0804  -24.8185 C   0  0  0  0  0  0  0  0  0  0  0  0
  -15.2144  -21.4645  -24.9029 C   0  0  0  0  0  0  0  0  0  0  0  0
  -14.7522  -22.0402  -26.1071 C   0  0  0  0  0  0  0  0  0  0  0  0
  -14.5441  -21.2055  -27.2188 C   0  0  0  0  0  0  0  0  0  0  0  0
  -14.7796  -19.8328  -27.1383 C   0  0  0  0  0  0  0  0  0  0  0  0
  -14.4594  -23.5302  -26.1877 C   0  0  0  0  0  0  0  0  0  0  0  0
  -14.1714  -23.9756  -27.5074 O   0  0  0  0  0  0  0  0  0  0  0  0
  -13.1890  -23.8325  -25.3831 C   0  0  0  0  0  0  0  0  0  0  0  0
  -15.6962  -24.3125  -25.7062 C   0  0  0  0  0  0  0  0  0  0  0  0
  -13.6482  -15.1727  -29.0512 Cl  0  0  0  0  0  0  0  0  0  0  0  0
  -14.1026  -12.7322  -28.2828 H   0  0  0  0  0  0  0  0  0  0  0  0
  -15.3195  -11.7249  -26.4103 H   0  0  0  0  0  0  0  0  0  0  0  0
  -16.4103  -13.1740  -24.6908 H   0  0  0  0  0  0  0  0  0  0  0  0
  -16.5740  -17.8882  -24.1726 H   0  0  0  0  0  0  0  0  0  0  0  0
  -15.7701  -19.6692  -23.8745 H   0  0  0  0  0  0  0  0  0  0  0  0
  -15.3729  -22.0752  -24.0268 H   0  0  0  0  0  0  0  0  0  0  0  0
  -14.1602  -21.5727  -28.1520 H   0  0  0  0  0  0  0  0  0  0  0  0
  -14.5845  -19.2280  -28.0112 H   0  0  0  0  0  0  0  0  0  0  0  0
  -14.9421  -23.8460  -28.0377 H   0  0  0  0  0  0  0  0  0  0  0  0
  -12.3739  -23.1841  -25.7021 H   0  0  0  0  0  0  0  0  0  0  0  0
  -12.8482  -24.8560  -25.5330 H   0  0  0  0  0  0  0  0  0  0  0  0
  -13.3340  -23.6717  -24.3148 H   0  0  0  0  0  0  0  0  0  0  0  0
  -16.5776  -23.9700  -26.2504 H   0  0  0  0  0  0  0  0  0  0  0  0
  -15.6047  -25.3741  -25.9382 H   0  0  0  0  0  0  0  0  0  0  0  0
  -15.8846  -24.2026  -24.6385 H   0  0  0  0  0  0  0  0  0  0  0  0
  1  2  2  0
  1  3  1  0
  1 22  1  0
  2  4  1  0
  2  5  1  0
  3  6  2  0
  3 23  1  0
  4  7  2  0
  4  8  1  0
  5 11  2  0
  6  7  1  0
  6 24  1  0
  7 25  1  0
  8  9  1  0
  8 10  2  0
  9 11  1  0
  9 26  1  0
 11 12  1  0
 12 13  2  0
 12 17  1  0
 13 14  1  0
 13 27  1  0
 14 15  2  0
 14 28  1  0
 15 16  1  0
 15 18  1  0
 16 17  2  0
 16 29  1  0
 17 30  1  0
 18 19  1  0
 18 20  1  0
 18 21  1  0
 19 31  1  0
 20 32  1  0
 20 33  1  0
 20 34  1  0
 21 35  1  0
 21 36  1  0
 21 37  1  0
M  END
>  <s_m_entry_id>  (1) 
513

>  <Name>  (1) 
5g

>  <IC50[nM]>  (1) 
12

>  <s_m_Source_Path>  (1) 
/projects/mai/users/kmzp800_harry/pmx_colab/docking_jobs/tnks2

>  <s_m_Source_File>  (1) 
tnks2_lig.sdf

>  <i_m_Source_File_Index>  (1) 
13

>  <s_m_job_name>  (1) 
glide-dock_SP_tnks_mcs_fallabck

>  <r_i_docking_score>  (1) 
-9.90103944191771

>  <r_i_glide_gscore>  (1) 
-9.90103944191771

>  <r_i_glide_emodel>  (1) 
-32.5415604368328

>  <index_string>  (1) 
16:0:0

$$$$
