35:0:0
     RDKit          3D

 68 72  0  0  1  0  0  0  0  0999 V2000
    0.8900   -0.9180   14.5050 C   0  0  0  0  0  0  0  0  0  0  0  0
    0.4830   -2.0920   15.1580 C   0  0  0  0  0  0  0  0  0  0  0  0
   -0.8390   -2.5350   15.0530 C   0  0  0  0  0  0  0  0  0  0  0  0
   -1.7630   -1.8120   14.2930 C   0  0  0  0  0  0  0  0  0  0  0  0
   -1.3710   -0.6400   13.6320 C   0  0  0  0  0  0  0  0  0  0  0  0
   -0.0460   -0.2030   13.7460 C   0  0  0  0  0  0  0  0  0  0  0  0
    6.4810    0.1720   16.0490 C   0  0  0  0  0  0  0  0  0  0  0  0
    6.1460    0.8350   14.9140 N   0  0  0  0  0  0  0  0  0  0  0  0
    4.8640    0.4890   14.7120 C   0  0  0  0  0  0  0  0  0  0  0  0
    4.0390    0.9080   13.6720 C   0  0  0  0  0  0  0  0  0  0  0  0
    4.5290    1.7780   12.6440 N   0  0  0  0  0  0  0  0  0  0  0  0
    2.7630    0.4260   13.6440 N   0  0  0  0  0  0  0  0  0  0  0  0
    2.2790   -0.4270   14.6000 C   0  0  0  0  0  0  0  0  0  0  0  0
    3.1290   -0.8260   15.6500 C   0  0  0  0  0  0  0  0  0  0  0  0
    4.3940   -0.3400   15.6490 N   0  0  0  0  0  0  0  0  0  0  0  0
    5.3930   -0.5640   16.5140 C   0  0  0  0  0  0  0  0  0  0  0  0
    3.7210    2.4590   11.6750 C   0  0  0  0  0  0  0  0  0  0  0  0
    4.2530    2.7250   10.4110 C   0  0  0  0  0  0  0  0  0  0  0  0
    3.4890    3.3960    9.4520 C   0  0  0  0  0  0  0  0  0  0  0  0
    2.1830    3.8200    9.7490 C   0  0  0  0  0  0  0  0  0  0  0  0
    1.6500    3.5760   11.0240 C   0  0  0  0  0  0  0  0  0  0  0  0
    2.4230    2.8960   11.9780 C   0  0  0  0  0  0  0  0  0  0  0  0
    1.4020    4.4860    8.7990 O   0  0  0  0  0  0  0  0  0  0  0  0
    0.2920    3.8780    8.1520 C   0  0  0  0  0  0  0  0  0  0  0  0
    0.3590    4.0240   11.3250 O   0  0  0  0  0  0  0  0  0  0  0  0
    0.0050    5.4010   11.3270 C   0  0  0  0  0  0  0  0  0  0  0  0
   -2.3320    0.1300   12.8240 C   0  0  0  0  0  0  0  0  0  0  0  0
   -3.4750   -0.3450   12.5850 O   0  0  0  0  0  0  0  0  0  0  0  0
   -1.9500    1.4160   12.3100 N   0  0  0  0  0  0  0  0  0  0  0  0
   -2.7730    2.3340   11.5790 C   0  0  0  0  0  0  0  0  0  0  0  0
   -2.4560    2.6030   10.2450 C   0  0  0  0  0  0  0  0  0  0  0  0
   -3.2260    3.5020    9.5020 C   0  0  0  0  0  0  0  0  0  0  0  0
   -4.3330    4.1380   10.0820 C   0  0  0  0  0  0  0  0  0  0  0  0
   -4.6360    3.8830   11.4260 C   0  0  0  0  0  0  0  0  0  0  0  0
   -3.8650    2.9840   12.1690 C   0  0  0  0  0  0  0  0  0  0  0  0
   -5.1120    5.1150    9.2920 C   0  0  0  0  0  0  0  0  0  0  0  0
   -5.5580    6.1430    9.8680 O   0  0  0  0  0  0  0  0  0  0  0  0
   -5.3980    4.9410    7.8970 N   0  0  0  0  0  0  0  0  0  0  0  0
   -6.1510    3.5530    7.1800 S   0  0  0  0  0  6  0  0  0  0  0  0
   -7.1120    4.0150    6.1210 O   0  0  0  0  0  0  0  0  0  0  0  0
   -5.1130    2.6770    6.5380 O   0  0  0  0  0  0  0  0  0  0  0  0
   -7.0450    2.6350    8.4120 C   0  0  0  0  0  0  0  0  0  0  0  0
    1.2072   -2.6659   15.7548 H   0  0  0  0  0  0  0  0  0  0  0  0
   -1.1526   -3.4542   15.5694 H   0  0  0  0  0  0  0  0  0  0  0  0
   -2.8020   -2.1644   14.2134 H   0  0  0  0  0  0  0  0  0  0  0  0
    0.2658    0.7176   13.2309 H   0  0  0  0  0  0  0  0  0  0  0  0
    7.4684    0.2099   16.5323 H   0  0  0  0  0  0  0  0  0  0  0  0
    5.5472    1.9265   12.5974 H   0  0  0  0  0  0  0  0  0  0  0  0
    2.7793   -1.5062   16.4406 H   0  0  0  0  0  0  0  0  0  0  0  0
    5.3605   -1.2006   17.4105 H   0  0  0  0  0  0  0  0  0  0  0  0
    5.2774    2.4051   10.1694 H   0  0  0  0  0  0  0  0  0  0  0  0
    3.9137    3.5937    8.4567 H   0  0  0  0  0  0  0  0  0  0  0  0
    2.0051    2.7031   12.9771 H   0  0  0  0  0  0  0  0  0  0  0  0
   -0.4084    3.4944    8.9085 H   0  0  0  0  0  0  0  0  0  0  0  0
   -0.2188    4.6223    7.5234 H   0  0  0  0  0  0  0  0  0  0  0  0
    0.6441    3.0468    7.5234 H   0  0  0  0  0  0  0  0  0  0  0  0
   -0.0859    5.7547   12.3646 H   0  0  0  0  0  0  0  0  0  0  0  0
    0.7834    5.9805   10.8090 H   0  0  0  0  0  0  0  0  0  0  0  0
   -0.9563    5.5332   10.8090 H   0  0  0  0  0  0  0  0  0  0  0  0
   -0.9788    1.7104   12.4860 H   0  0  0  0  0  0  0  0  0  0  0  0
   -1.5948    2.1040    9.7766 H   0  0  0  0  0  0  0  0  0  0  0  0
   -2.9619    3.7121    8.4551 H   0  0  0  0  0  0  0  0  0  0  0  0
   -5.4869    4.3940   11.9002 H   0  0  0  0  0  0  0  0  0  0  0  0
   -4.1168    2.7861   13.2214 H   0  0  0  0  0  0  0  0  0  0  0  0
   -5.1323    5.7093    7.2646 H   0  0  0  0  0  0  0  0  0  0  0  0
   -6.7279    2.9606    9.4137 H   0  0  0  0  0  0  0  0  0  0  0  0
   -8.1236    2.8148    8.2923 H   0  0  0  0  0  0  0  0  0  0  0  0
   -6.8367    1.5616    8.2923 H   0  0  0  0  0  0  0  0  0  0  0  0
  1 13  1  0
  1  2  2  0
  1  6  1  0
  2  3  1  0
  3  4  2  0
  4  5  1  0
  5  6  2  0
  5 27  1  0
  7 16  2  0
  7  8  1  0
  8  9  2  0
  9 15  1  0
  9 10  1  0
 10 11  1  0
 10 12  2  0
 11 17  1  0
 12 13  1  0
 13 14  2  0
 14 15  1  0
 15 16  1  0
 17 22  1  0
 17 18  2  0
 18 19  1  0
 19 20  2  0
 20 21  1  0
 20 23  1  0
 21 25  1  0
 21 22  2  0
 23 24  1  0
 25 26  1  0
 27 28  2  0
 27 29  1  0
 29 30  1  0
 30 35  1  0
 30 31  2  0
 31 32  1  0
 32 33  2  0
 33 34  1  0
 33 36  1  0
 34 35  2  0
 36 37  2  0
 36 38  1  0
 38 39  1  0
 39 42  1  0
 39 40  2  0
 39 41  2  0
  2 43  1  0
  3 44  1  0
  4 45  1  0
  6 46  1  0
  7 47  1  0
 11 48  1  0
 14 49  1  0
 16 50  1  0
 18 51  1  0
 19 52  1  0
 22 53  1  0
 24 54  1  0
 24 55  1  0
 24 56  1  0
 26 57  1  0
 26 58  1  0
 26 59  1  0
 29 60  1  0
 31 61  1  0
 32 62  1  0
 34 63  1  0
 35 64  1  0
 38 65  1  0
 42 66  1  0
 42 67  1  0
 42 68  1  0
M  END
>  <s_m_entry_id>  (1) 
36

>  <MODEL>  (1) 
1

>  <REMARK>  (1) 
 VINA RESULT:    -8.151      0.000      0.000
 INTER + INTRA:         -13.619
 INTER:                 -12.439
 INTRA:                  -1.180
 UNBOUND:                -1.180
  Name = /scratch/kmzp800/tmpg18bze3b/tmpime4_9ty.pdb
  12 active torsions:
  status: ('A' for Active; 'I' for Inactive)
    1  A    between atoms: N2_5  and  C4_6
    2  A    between atoms: C7_9  and  O1_10
    3  A    between atoms: O1_10  and  C8_11
    4  A    between atoms: C9_12  and  O2_13
    5  A    between atoms: O2_13  and  C10_14
    6  A    between atoms: C12_17  and  C13_18
    7  A    between atoms: C17_22  and  C18_23
    8  A    between atoms: N4_25  and  C19_26
    9  A    between atoms: C22_29  and  C23_30
   10  A    between atoms: C23_30  and  N5_32
   11  A    between atoms: N5_32  and  S1_33
   12  A    between atoms: S1_33  and  C24_36
                            x       y       z     vdW  Elec       q    Type
                         _______ _______ _______ _____ _____    ______ ____

>  <TORSDO>  (1) 
F 9

>  <grid_id>  (1) 
syk-prepared

>  <grid_path>  (1) 
syk_vina.pdbqt

>  <grid_filename>  (1) 
syk_vina.pdbqt

>  <docking_score>  (1) 
-8.151

>  <compound_name>  (1) 
CHEMBL3265000

>  <index_string>  (1) 
35:0:0

>  <s_m_Source_Path>  (1) 
/projects/mai/users/kmzp800_harry/pmx_colab/docking_jobs/syk/vina_prep/output

>  <s_m_Source_File>  (1) 
ptp1b_docked_conformers.sdf

>  <i_m_Source_File_Index>  (1) 
36

$$$$
