35:0:0
     RDKit          3D

 51 54  0  0  1  0  0  0  0  0999 V2000
   -4.2083   -3.0947   16.0664 C   0  0  0  0  0  0  0  0  0  0  0  0
   -3.6739   -2.2393   15.0648 O   0  0  0  0  0  0  0  0  0  0  0  0
   -2.3048   -2.0734   15.0189 C   0  0  0  0  0  0  0  0  0  0  0  0
   -1.4003   -2.8162   15.8156 C   0  0  0  0  0  0  0  0  0  0  0  0
   -0.0198   -2.5661   15.7486 C   0  0  0  0  0  0  0  0  0  0  0  0
    0.4973   -1.5767   14.8913 C   0  0  0  0  0  0  0  0  0  0  0  0
    1.8906   -1.3903   14.9225 N   0  0  0  0  0  0  0  0  0  0  0  0
    2.7319   -0.3884   14.4042 C   0  0  0  0  0  0  0  0  0  0  0  0
    2.3287    0.4207   13.4603 N   0  0  0  0  0  0  0  0  0  0  0  0
    3.1448    1.4576   13.0471 C   0  0  0  0  0  0  0  0  0  0  0  0
    4.4081    1.6450   13.5526 C   0  0  0  0  0  0  0  0  0  0  0  0
    4.8304    0.8040   14.5248 N   0  0  0  0  0  0  0  0  0  0  0  0
    5.9954    0.7803   15.2594 C   0  0  0  0  0  0  0  0  0  0  0  0
    5.8038   -0.1686   16.2233 C   0  0  0  0  0  0  0  0  0  0  0  0
    4.5954   -0.8291   16.0623 N   0  0  0  0  0  0  0  0  0  0  0  0
    4.0132   -0.2431   15.0173 C   0  0  0  0  0  0  0  0  0  0  0  0
    2.5820    2.3835   12.0320 C   0  0  0  0  0  0  0  0  0  0  0  0
    1.2624    2.8695   12.1881 C   0  0  0  0  0  0  0  0  0  0  0  0
    0.6879    3.7479   11.2434 C   0  0  0  0  0  0  0  0  0  0  0  0
    1.4276    4.1300   10.1064 C   0  0  0  0  0  0  0  0  0  0  0  0
    2.7370    3.6677    9.9367 C   0  0  0  0  0  0  0  0  0  0  0  0
    3.3142    2.8043   10.8862 C   0  0  0  0  0  0  0  0  0  0  0  0
    4.7067    2.3000   10.5843 C   0  0  0  0  0  0  0  0  0  0  0  0
   -0.6944    4.2917   11.4605 C   0  0  0  0  0  0  0  0  0  0  0  0
   -1.5939    3.6147   11.9496 O   0  0  0  0  0  0  0  0  0  0  0  0
   -0.8655    5.5763   11.1467 N   0  0  0  0  0  0  0  0  0  0  0  0
   -0.4037   -0.8501   14.0791 C   0  0  0  0  0  0  0  0  0  0  0  0
   -1.8026   -1.0899   14.1403 C   0  0  0  0  0  0  0  0  0  0  0  0
   -2.7327   -0.3986   13.3893 O   0  0  0  0  0  0  0  0  0  0  0  0
   -2.2527    0.5705   12.4722 C   0  0  0  0  0  0  0  0  0  0  0  0
   -5.2963   -3.0632   16.0230 H   0  0  0  0  0  0  0  0  0  0  0  0
   -3.9028   -4.1304   15.9120 H   0  0  0  0  0  0  0  0  0  0  0  0
   -3.9102   -2.7745   17.0664 H   0  0  0  0  0  0  0  0  0  0  0  0
   -1.7373   -3.5775   16.5026 H   0  0  0  0  0  0  0  0  0  0  0  0
    0.6428   -3.1406   16.3810 H   0  0  0  0  0  0  0  0  0  0  0  0
    2.3651   -1.9588   15.6121 H   0  0  0  0  0  0  0  0  0  0  0  0
    5.0668    2.4595   13.2734 H   0  0  0  0  0  0  0  0  0  0  0  0
    6.7876    1.4880   15.0629 H   0  0  0  0  0  0  0  0  0  0  0  0
    6.4445   -0.3960   17.0566 H   0  0  0  0  0  0  0  0  0  0  0  0
    0.6899    2.5754   13.0568 H   0  0  0  0  0  0  0  0  0  0  0  0
    1.0014    4.7868    9.3618 H   0  0  0  0  0  0  0  0  0  0  0  0
    3.2933    3.9693    9.0611 H   0  0  0  0  0  0  0  0  0  0  0  0
    4.8301    2.2836    9.5026 H   0  0  0  0  0  0  0  0  0  0  0  0
    5.4534    2.9646   11.0177 H   0  0  0  0  0  0  0  0  0  0  0  0
    4.8735    1.2832   10.9386 H   0  0  0  0  0  0  0  0  0  0  0  0
   -1.7651    6.0057   11.2964 H   0  0  0  0  0  0  0  0  0  0  0  0
   -0.0832    6.1173   10.8076 H   0  0  0  0  0  0  0  0  0  0  0  0
   -0.0248   -0.1013   13.4078 H   0  0  0  0  0  0  0  0  0  0  0  0
   -3.0905    1.0386   11.9562 H   0  0  0  0  0  0  0  0  0  0  0  0
   -1.7067    1.3503   13.0019 H   0  0  0  0  0  0  0  0  0  0  0  0
   -1.6047    0.1255   11.7161 H   0  0  0  0  0  0  0  0  0  0  0  0
  1  2  1  0
  1 31  1  0
  1 32  1  0
  1 33  1  0
  2  3  1  0
  3  4  2  0
  3 28  1  0
  4  5  1  0
  4 34  1  0
  5  6  2  0
  5 35  1  0
  6  7  1  0
  6 27  1  0
  7  8  1  0
  7 36  1  0
  8  9  2  0
  8 16  1  0
  9 10  1  0
 10 11  2  0
 10 17  1  0
 11 12  1  0
 11 37  1  0
 12 13  1  0
 12 16  1  0
 13 14  2  0
 13 38  1  0
 14 15  1  0
 14 39  1  0
 15 16  2  0
 17 18  2  0
 17 22  1  0
 18 19  1  0
 18 40  1  0
 19 20  2  0
 19 24  1  0
 20 21  1  0
 20 41  1  0
 21 22  2  0
 21 42  1  0
 22 23  1  0
 23 43  1  0
 23 44  1  0
 23 45  1  0
 24 25  2  0
 24 26  1  0
 26 46  1  0
 26 47  1  0
 27 28  2  0
 27 48  1  0
 28 29  1  0
 29 30  1  0
 30 49  1  0
 30 50  1  0
 30 51  1  0
M  END
>  <s_m_entry_id>  (1) 
1088

>  <IC50[nM]>  (1) 
466

>  <s_m_Source_Path>  (1) 
/projects/mai/users/kmzp800_harry/pmx_colab/docking_jobs/syk

>  <s_m_Source_File>  (1) 
tnks2_lig.sdf

>  <i_m_Source_File_Index>  (1) 
40

>  <s_m_job_name>  (1) 
glide-dock_SP_syk_mcs

>  <r_i_docking_score>  (1) 
-7.41029688644312

>  <r_i_glide_gscore>  (1) 
-7.41029688644312

>  <r_i_glide_emodel>  (1) 
-61.8762743265557

>  <index_string>  (1) 
35:0:0

$$$$
