27:0:0
     RDKit          3D

 62 67  0  0  1  0  0  0  0  0999 V2000
   -4.1337    3.8491    8.9539 C   0  0  0  0  0  0  0  0  0  0  0  0
   -3.4573    4.0633   10.1844 O   0  0  0  0  0  0  0  0  0  0  0  0
   -2.0759    4.0557   10.1776 C   0  0  0  0  0  0  0  0  0  0  0  0
   -1.2992    3.8021    9.0189 C   0  0  0  0  0  0  0  0  0  0  0  0
    0.1055    3.8065    9.0798 C   0  0  0  0  0  0  0  0  0  0  0  0
    0.7559    4.0231   10.3059 C   0  0  0  0  0  0  0  0  0  0  0  0
    2.1534    4.0031   10.3536 N   0  0  0  0  0  0  0  0  0  0  0  0
    2.9497    3.5313   11.4041 C   0  0  0  0  0  0  0  0  0  0  0  0
    2.5334    2.4986   12.0832 N   0  0  0  0  0  0  0  0  0  0  0  0
    3.3067    1.9866   13.1033 C   0  0  0  0  0  0  0  0  0  0  0  0
    4.5192    2.5478   13.4419 C   0  0  0  0  0  0  0  0  0  0  0  0
    4.9478    3.6248   12.7310 N   0  0  0  0  0  0  0  0  0  0  0  0
    6.1038    4.3784   12.8111 C   0  0  0  0  0  0  0  0  0  0  0  0
    6.0264    5.3102   11.8176 C   0  0  0  0  0  0  0  0  0  0  0  0
    4.8298    5.2027   11.1189 N   0  0  0  0  0  0  0  0  0  0  0  0
    4.1915    4.1682   11.6698 C   0  0  0  0  0  0  0  0  0  0  0  0
    2.7474    0.7980   13.8091 C   0  0  0  0  0  0  0  0  0  0  0  0
    3.5640   -0.0330   14.6159 C   0  0  0  0  0  0  0  0  0  0  0  0
    3.0130   -1.1005   15.3499 C   0  0  0  0  0  0  0  0  0  0  0  0
    1.6417   -1.3915   15.2571 C   0  0  0  0  0  0  0  0  0  0  0  0
    0.8088   -0.6294   14.4060 C   0  0  0  0  0  0  0  0  0  0  0  0
    1.3705    0.4673   13.7127 C   0  0  0  0  0  0  0  0  0  0  0  0
   -0.6505   -0.9617   14.2286 C   0  0  0  0  0  0  0  0  0  0  0  0
   -1.4307   -0.1294   13.7636 O   0  0  0  0  0  0  0  0  0  0  0  0
   -0.9986   -2.2074   14.6067 N   0  0  0  0  0  0  0  0  0  0  0  0
   -2.2013   -2.9250   14.3686 C   0  0  0  0  0  0  0  0  0  0  0  0
   -3.2069   -2.5158   13.4630 C   0  0  0  0  0  0  0  0  0  0  0  0
   -4.2979   -3.3610   13.1863 C   0  0  0  0  0  0  0  0  0  0  0  0
   -4.4180   -4.6330   13.7950 C   0  0  0  0  0  0  0  0  0  0  0  0
   -3.4333   -5.0054   14.7398 C   0  0  0  0  0  0  0  0  0  0  0  0
   -2.3390   -4.1648   15.0219 C   0  0  0  0  0  0  0  0  0  0  0  0
   -5.5132   -5.5578   13.4165 C   0  0  0  0  0  0  0  0  0  0  0  0
   -6.2317   -5.3953   12.2949 N   0  0  0  0  0  0  0  0  0  0  0  0
   -7.0420   -6.4627   12.3014 N   0  0  0  0  0  0  0  0  0  0  0  0
   -6.7702   -7.2343   13.3669 N   0  0  0  0  0  0  0  0  0  0  0  0
   -5.7755   -6.6903   14.0851 N   0  0  0  0  0  0  0  0  0  0  0  0
   -0.0086    4.2943   11.4590 C   0  0  0  0  0  0  0  0  0  0  0  0
   -1.4222    4.3302   11.4026 C   0  0  0  0  0  0  0  0  0  0  0  0
   -2.2109    4.6204   12.4968 O   0  0  0  0  0  0  0  0  0  0  0  0
   -1.6164    5.3614   13.5547 C   0  0  0  0  0  0  0  0  0  0  0  0
   -5.2097    3.9026    9.1227 H   0  0  0  0  0  0  0  0  0  0  0  0
   -3.8753    4.6144    8.2207 H   0  0  0  0  0  0  0  0  0  0  0  0
   -3.9148    2.8615    8.5434 H   0  0  0  0  0  0  0  0  0  0  0  0
   -1.7560    3.6028    8.0628 H   0  0  0  0  0  0  0  0  0  0  0  0
    0.6801    3.6070    8.1868 H   0  0  0  0  0  0  0  0  0  0  0  0
    2.6159    4.6761    9.7590 H   0  0  0  0  0  0  0  0  0  0  0  0
    5.1638    2.2031   14.2407 H   0  0  0  0  0  0  0  0  0  0  0  0
    6.8725    4.1443   13.5319 H   0  0  0  0  0  0  0  0  0  0  0  0
    6.7583    6.0557   11.5376 H   0  0  0  0  0  0  0  0  0  0  0  0
    4.6224    0.1530   14.7098 H   0  0  0  0  0  0  0  0  0  0  0  0
    3.6463   -1.7046   15.9824 H   0  0  0  0  0  0  0  0  0  0  0  0
    1.2582   -2.2176   15.8374 H   0  0  0  0  0  0  0  0  0  0  0  0
    0.7244    1.0705   13.0901 H   0  0  0  0  0  0  0  0  0  0  0  0
   -0.2700   -2.7364   15.0615 H   0  0  0  0  0  0  0  0  0  0  0  0
   -3.1415   -1.5874   12.9183 H   0  0  0  0  0  0  0  0  0  0  0  0
   -5.0302   -3.0414   12.4568 H   0  0  0  0  0  0  0  0  0  0  0  0
   -3.4920   -5.9621   15.2374 H   0  0  0  0  0  0  0  0  0  0  0  0
   -1.5905   -4.4978   15.7269 H   0  0  0  0  0  0  0  0  0  0  0  0
    0.5116    4.4818   12.3858 H   0  0  0  0  0  0  0  0  0  0  0  0
   -2.3836    5.6061   14.2887 H   0  0  0  0  0  0  0  0  0  0  0  0
   -0.8406    4.8038   14.0782 H   0  0  0  0  0  0  0  0  0  0  0  0
   -1.1895    6.2981   13.1957 H   0  0  0  0  0  0  0  0  0  0  0  0
  1  2  1  0
  1 41  1  0
  1 42  1  0
  1 43  1  0
  2  3  1  0
  3  4  2  0
  3 38  1  0
  4  5  1  0
  4 44  1  0
  5  6  2  0
  5 45  1  0
  6  7  1  0
  6 37  1  0
  7  8  1  0
  7 46  1  0
  8  9  2  0
  8 16  1  0
  9 10  1  0
 10 11  2  0
 10 17  1  0
 11 12  1  0
 11 47  1  0
 12 13  1  0
 12 16  1  0
 13 14  2  0
 13 48  1  0
 14 15  1  0
 14 49  1  0
 15 16  2  0
 17 18  2  0
 17 22  1  0
 18 19  1  0
 18 50  1  0
 19 20  2  0
 19 51  1  0
 20 21  1  0
 20 52  1  0
 21 22  2  0
 21 23  1  0
 22 53  1  0
 23 24  2  0
 23 25  1  0
 25 26  1  0
 25 54  1  0
 26 27  2  0
 26 31  1  0
 27 28  1  0
 27 55  1  0
 28 29  2  0
 28 56  1  0
 29 30  1  0
 29 32  1  0
 30 31  2  0
 30 57  1  0
 31 58  1  0
 32 36  2  0
 32 33  1  0
 33 34  1  0
 34 35  2  0
 35 36  1  0
 37 38  2  0
 37 59  1  0
 38 39  1  0
 39 40  1  0
 40 60  1  0
 40 61  1  0
 40 62  1  0
M  CHG  1  33  -1
M  END
>  <s_m_entry_id>  (1) 
707

>  <IC50[nM]>  (1) 
1.5

>  <s_m_Source_Path>  (1) 
/projects/mai/users/kmzp800_harry/pmx_colab/docking_jobs/syk

>  <s_m_Source_File>  (1) 
tnks2_lig.sdf

>  <i_m_Source_File_Index>  (1) 
28

>  <s_m_job_name>  (1) 
glide-dock_SP_tnks2_no_const

>  <r_i_docking_score>  (1) 
-7.08005262099608

>  <r_i_glide_gscore>  (1) 
-7.08005262099608

>  <r_i_glide_emodel>  (1) 
-81.4104563486412

>  <index_string>  (1) 
27:0:0

$$$$
