22:0:0
     RDKit          3D

 46 49  0  0  1  0  0  0  0  0999 V2000
   36.9464   36.0304   18.9446 C   0  0  0  0  0  0  0  0  0  0  0  0
   38.1520   36.1342   18.2243 C   0  0  0  0  0  0  0  0  0  0  0  0
   38.1641   35.9494   16.8302 C   0  0  0  0  0  0  0  0  0  0  0  0
   36.9685   35.6506   16.1542 C   0  0  0  0  0  0  0  0  0  0  0  0
   35.7592   35.5493   16.8698 C   0  0  0  0  0  0  0  0  0  0  0  0
   35.7347   35.7487   18.2646 C   0  0  0  0  0  0  0  0  0  0  0  0
   34.5248   35.6058   18.9037 O   0  0  0  0  0  0  0  0  0  0  0  0
   34.3603   36.1446   20.1501 C   0  0  0  0  0  0  0  0  0  0  0  0
   34.1525   35.2146   21.2659 C   0  0  0  0  0  0  0  0  0  0  0  0
   34.1527   33.9936   21.0897 O   0  0  0  0  0  0  0  0  0  0  0  0
   33.9977   35.7760   22.5019 N   0  0  0  0  0  0  0  0  0  0  0  0
   33.8117   34.9090   23.6766 C   0  0  0  0  0  0  0  0  0  0  0  0
   34.3961   37.4794   20.3271 C   0  0  0  0  0  0  0  0  0  0  0  0
   34.2420   38.0600   21.6511 C   0  0  0  0  0  0  0  0  0  0  0  0
   34.0368   37.1922   22.7411 C   0  0  0  0  0  0  0  0  0  0  0  0
   34.2962   39.4426   21.9133 C   0  0  0  0  0  0  0  0  0  0  0  0
   34.1522   39.9323   23.1638 N   0  0  0  0  0  0  0  0  0  0  0  0
   33.9440   39.0381   24.1285 C   0  0  0  0  0  0  0  0  0  0  0  0
   33.8882   37.7144   23.9778 N   0  0  0  0  0  0  0  0  0  0  0  0
   33.7588   39.5492   25.3974 N   0  0  0  0  0  0  0  0  0  0  0  0
   33.3282   38.7573   26.5478 C   0  0  0  0  0  0  0  0  0  0  0  0
   34.4921   37.9894   27.2054 C   0  0  0  0  0  0  0  0  0  0  0  0
   35.3794   38.9209   28.0464 C   0  0  0  0  0  0  0  0  0  0  0  0
   34.5899   39.5694   29.0331 O   0  0  0  0  0  0  0  0  0  0  0  0
   33.6059   40.4251   28.4660 C   0  0  0  0  0  0  0  0  0  0  0  0
   32.6161   39.6246   27.6010 C   0  0  0  0  0  0  0  0  0  0  0  0
   36.9708   36.1636   20.0164 H   0  0  0  0  0  0  0  0  0  0  0  0
   39.0750   36.3493   18.7436 H   0  0  0  0  0  0  0  0  0  0  0  0
   39.0934   36.0320   16.2871 H   0  0  0  0  0  0  0  0  0  0  0  0
   36.9807   35.5040   15.0891 H   0  0  0  0  0  0  0  0  0  0  0  0
   34.8419   35.3263   16.3452 H   0  0  0  0  0  0  0  0  0  0  0  0
   34.6502   35.0277   24.3642 H   0  0  0  0  0  0  0  0  0  0  0  0
   32.9030   35.1926   24.2089 H   0  0  0  0  0  0  0  0  0  0  0  0
   33.7265   33.8434   23.4561 H   0  0  0  0  0  0  0  0  0  0  0  0
   34.5514   38.1466   19.4931 H   0  0  0  0  0  0  0  0  0  0  0  0
   34.4554   40.1591   21.1208 H   0  0  0  0  0  0  0  0  0  0  0  0
   33.7519   40.5604   25.4893 H   0  0  0  0  0  0  0  0  0  0  0  0
   32.6007   38.0312   26.1802 H   0  0  0  0  0  0  0  0  0  0  0  0
   34.0853   37.2167   27.8587 H   0  0  0  0  0  0  0  0  0  0  0  0
   35.0913   37.4678   26.4575 H   0  0  0  0  0  0  0  0  0  0  0  0
   36.1523   38.3499   28.5578 H   0  0  0  0  0  0  0  0  0  0  0  0
   35.8902   39.6545   27.4210 H   0  0  0  0  0  0  0  0  0  0  0  0
   33.0744   40.9173   29.2795 H   0  0  0  0  0  0  0  0  0  0  0  0
   34.0943   41.2098   27.8897 H   0  0  0  0  0  0  0  0  0  0  0  0
   31.8970   40.2965   27.1287 H   0  0  0  0  0  0  0  0  0  0  0  0
   32.0363   38.9727   28.2553 H   0  0  0  0  0  0  0  0  0  0  0  0
  1  6  2  0
  1  2  1  0
  1 27  1  0
  2  3  2  0
  2 28  1  0
  3  4  1  0
  3 29  1  0
  4  5  2  0
  4 30  1  0
  5  6  1  0
  5 31  1  0
  6  7  1  0
  7  8  1  0
  8  9  1  0
  8 13  2  0
  9 10  2  0
  9 11  1  0
 11 15  1  0
 11 12  1  0
 12 32  1  0
 12 33  1  0
 12 34  1  0
 13 14  1  0
 13 35  1  0
 14 15  2  0
 14 16  1  0
 15 19  1  0
 16 17  2  0
 16 36  1  0
 17 18  1  0
 18 19  2  0
 18 20  1  0
 20 21  1  0
 20 37  1  0
 21 26  1  0
 21 22  1  0
 21 38  1  0
 22 23  1  0
 22 39  1  0
 22 40  1  0
 23 24  1  0
 23 41  1  0
 23 42  1  0
 24 25  1  0
 25 26  1  0
 25 43  1  0
 25 44  1  0
 26 45  1  0
 26 46  1  0
M  END
>  <s_m_entry_id>  (1) 
738

>  <i_f3d_flags>  (1) 
0

>  <r_lp_tautomer_probability>  (1) 
1

>  <r_epik_Ionization_Penalty>  (1) 
  0.0000

>  <r_epik_State_Penalty>  (1) 
  0.0000

>  <i_epik_Tot_Q>  (1) 
0

>  <s_m_job_name>  (1) 
glide-dock_SP_p38_all_ligs_no_cons_10_poses

>  <r_i_docking_score>  (1) 
-7.54863180272057

>  <r_i_glide_gscore>  (1) 
-7.54863180272057

>  <r_i_glide_emodel>  (1) 
-63.7529816291449

>  <index_string>  (1) 
22:0:0

$$$$
