CHEMBL3265037
                    3D
 Schrodinger Suite 2021-4.
 56 61  0  0  1  0            999 V2000
   -1.2227   -5.5282   15.4190 C   0  0  0  0  0  0
   -2.1116   -4.4854   15.0401 O   0  0  0  0  0  0
   -1.5857   -3.2263   14.8262 C   0  0  0  0  0  0
   -0.2528   -2.8748   15.1578 C   0  0  0  0  0  0
    0.2583   -1.5915   14.8821 C   0  0  0  0  0  0
    1.5793   -1.3185   15.2663 N   0  0  0  0  0  0
    2.5231   -0.4297   14.7288 C   0  0  0  0  0  0
    2.1981    0.3753   13.7516 N   0  0  0  0  0  0
    3.1306    1.2623   13.2501 C   0  0  0  0  0  0
    4.4354    1.2837   13.6895 C   0  0  0  0  0  0
    4.7646    0.4691   14.7226 N   0  0  0  0  0  0
    5.9071    0.3716   15.4909 C   0  0  0  0  0  0
    5.5922   -0.4925   16.5065 C   0  0  0  0  0  0
    4.3505   -1.0627   16.3281 N   0  0  0  0  0  0
    3.8238   -0.4204   15.2930 C   0  0  0  0  0  0
    2.6519    2.2458   12.2439 C   0  0  0  0  0  0
    3.5342    2.7986   11.2790 C   0  0  0  0  0  0
    3.0913    3.7189   10.3069 C   0  0  0  0  0  0
    1.7442    4.1370   10.2748 C   0  0  0  0  0  0
    0.9292    5.0081    9.4807 C   0  0  0  0  0  0
   -0.3123    5.0302    9.9045 N   0  0  0  0  0  0
   -0.3446    4.1952   10.9740 N   0  0  0  0  0  0
    0.8729    3.6039   11.2597 C   0  0  0  0  0  0
    1.3059    2.6810   12.2285 C   0  0  0  0  0  0
   -0.5857   -0.6359   14.2809 C   0  0  0  0  0  0
   -1.9172   -0.9562   13.9778 C   0  0  0  0  0  0
   -2.4272   -2.2454   14.2482 C   0  0  0  0  0  0
   -3.7725   -2.5480   13.9810 N   0  0  0  0  0  0
   -4.2025   -2.2565   12.6175 C   0  0  0  0  0  0
   -5.6720   -2.6592   12.4155 C   0  0  0  0  0  0
   -6.4721   -1.9960   13.3914 O   0  0  0  0  0  0
   -6.1248   -2.4105   14.7116 C   0  0  0  0  0  0
   -4.6656   -2.0197   15.0066 C   0  0  0  0  0  0
   -1.7757   -6.4646   15.4877 H   0  0  0  0  0  0
   -0.4313   -5.6646   14.6809 H   0  0  0  0  0  0
   -0.7697   -5.3455   16.3928 H   0  0  0  0  0  0
    0.4080   -3.5896   15.6245 H   0  0  0  0  0  0
    1.9798   -1.9580   15.9416 H   0  0  0  0  0  0
    5.1916    1.9822   13.3495 H   0  0  0  0  0  0
    6.7659    0.9933   15.2876 H   0  0  0  0  0  0
    6.1099   -0.7410   17.4081 H   0  0  0  0  0  0
    4.5691    2.4922   11.2552 H   0  0  0  0  0  0
    3.7864    4.1042    9.5761 H   0  0  0  0  0  0
    1.2129    5.6076    8.6281 H   0  0  0  0  0  0
   -1.2045    4.0559   11.4835 H   0  0  0  0  0  0
    0.6042    2.3039   12.9562 H   0  0  0  0  0  0
   -0.2493    0.3694   14.0880 H   0  0  0  0  0  0
   -2.5439   -0.1897   13.5506 H   0  0  0  0  0  0
   -3.5699   -2.7960   11.9129 H   0  0  0  0  0  0
   -4.0909   -1.1963   12.3972 H   0  0  0  0  0  0
   -6.0063   -2.3686   11.4192 H   0  0  0  0  0  0
   -5.7965   -3.7407   12.4909 H   0  0  0  0  0  0
   -6.7933   -1.9291   15.4256 H   0  0  0  0  0  0
   -6.2682   -3.4872   14.8194 H   0  0  0  0  0  0
   -4.5725   -0.9345   15.0546 H   0  0  0  0  0  0
   -4.3705   -2.4066   15.9837 H   0  0  0  0  0  0
  1  2  1  0  0  0
  1 34  1  0  0  0
  1 35  1  0  0  0
  1 36  1  0  0  0
  2  3  1  0  0  0
  3  4  2  0  0  0
  3 27  1  0  0  0
  4  5  1  0  0  0
  4 37  1  0  0  0
  5  6  1  0  0  0
  5 25  2  0  0  0
  6  7  1  0  0  0
  6 38  1  0  0  0
  7  8  2  0  0  0
  7 15  1  0  0  0
  8  9  1  0  0  0
  9 10  2  0  0  0
  9 16  1  0  0  0
 10 11  1  0  0  0
 10 39  1  0  0  0
 11 12  1  0  0  0
 11 15  1  0  0  0
 12 13  2  0  0  0
 12 40  1  0  0  0
 13 14  1  0  0  0
 13 41  1  0  0  0
 14 15  2  0  0  0
 16 17  2  0  0  0
 16 24  1  0  0  0
 17 18  1  0  0  0
 17 42  1  0  0  0
 18 19  2  0  0  0
 18 43  1  0  0  0
 19 20  1  0  0  0
 19 23  1  0  0  0
 20 21  2  0  0  0
 20 44  1  0  0  0
 21 22  1  0  0  0
 22 23  1  0  0  0
 22 45  1  0  0  0
 23 24  2  0  0  0
 24 46  1  0  0  0
 25 26  1  0  0  0
 25 47  1  0  0  0
 26 27  2  0  0  0
 26 48  1  0  0  0
 27 28  1  0  0  0
 28 29  1  0  0  0
 28 33  1  0  0  0
 29 30  1  0  0  0
 29 49  1  0  0  0
 29 50  1  0  0  0
 30 31  1  0  0  0
 30 51  1  0  0  0
 30 52  1  0  0  0
 31 32  1  0  0  0
 32 33  1  0  0  0
 32 53  1  0  0  0
 32 54  1  0  0  0
 33 55  1  0  0  0
 33 56  1  0  0  0
M  END
> <s_m_entry_id>
988

> <IC50[nM]>
0.44

> <s_m_Source_Path>
/projects/mai/users/kmzp800_harry/pmx_colab/docking_jobs/syk

> <s_m_Source_File>
tnks2_lig.sdf

> <i_m_Source_File_Index>
1

> <s_m_job_name>
glide-dock_SP_tnks2_core_const

> <r_i_docking_score>
-7.09864130792204

> <r_i_glide_gscore>
-7.09864130792204

> <r_i_glide_emodel>
-43.2647889226501

$$$$
CHEMBL3259820
                    3D
 Schrodinger Suite 2021-4.
 48 51  0  0  1  0            999 V2000
   -4.5962   -3.1454   15.4442 C   0  0  0  0  0  0
   -3.9558   -2.1454   14.6611 O   0  0  0  0  0  0
   -2.5886   -1.9960   14.7890 C   0  0  0  0  0  0
   -1.7783   -2.8277   15.6023 C   0  0  0  0  0  0
   -0.3959   -2.5898   15.7119 C   0  0  0  0  0  0
    0.2150   -1.5286   15.0181 C   0  0  0  0  0  0
    1.5901   -1.3390   15.2538 N   0  0  0  0  0  0
    2.5306   -0.4375   14.7274 C   0  0  0  0  0  0
    2.1989    0.3687   13.7525 N   0  0  0  0  0  0
    3.1235    1.2666   13.2546 C   0  0  0  0  0  0
    4.4302    1.2944   13.6869 C   0  0  0  0  0  0
    4.7675    0.4784   14.7183 N   0  0  0  0  0  0
    5.9137    0.3781   15.4824 C   0  0  0  0  0  0
    5.6065   -0.4948   16.4959 C   0  0  0  0  0  0
    4.3624   -1.0653   16.3194 N   0  0  0  0  0  0
    3.8321   -0.4160   15.2913 C   0  0  0  0  0  0
    2.6173    2.2391   12.2515 C   0  0  0  0  0  0
    1.2723    2.6808   12.2756 C   0  0  0  0  0  0
    0.7712    3.5609   11.2946 C   0  0  0  0  0  0
    1.6039    4.0121   10.2472 C   0  0  0  0  0  0
    2.9627    3.6351   10.2511 C   0  0  0  0  0  0
    3.4614    2.7683   11.2431 C   0  0  0  0  0  0
    1.0730    4.9012    9.1602 C   0  0  0  0  0  0
    1.7757    5.7527    8.6221 O   0  0  0  0  0  0
   -0.1743    4.6532    8.7572 N   0  0  0  0  0  0
   -0.5931   -0.7163   14.1878 C   0  0  0  0  0  0
   -1.9873   -0.9419   14.0660 C   0  0  0  0  0  0
   -2.8183   -0.1576   13.2890 O   0  0  0  0  0  0
   -2.2197    0.7703   12.3932 C   0  0  0  0  0  0
   -5.6696   -3.1180   15.2561 H   0  0  0  0  0  0
   -4.2442   -4.1436   15.1799 H   0  0  0  0  0  0
   -4.4449   -2.9759   16.5111 H   0  0  0  0  0  0
   -2.1941   -3.6465   16.1716 H   0  0  0  0  0  0
    0.1964   -3.2188   16.3629 H   0  0  0  0  0  0
    1.9839   -1.9389   15.9678 H   0  0  0  0  0  0
    5.1815    1.9963   13.3439 H   0  0  0  0  0  0
    6.7703    1.0010   15.2755 H   0  0  0  0  0  0
    6.1349   -0.7427   17.3905 H   0  0  0  0  0  0
    0.6061    2.3368   13.0526 H   0  0  0  0  0  0
   -0.2646    3.8644   11.3471 H   0  0  0  0  0  0
    3.6235    3.9914    9.4736 H   0  0  0  0  0  0
    4.4991    2.4728   11.1934 H   0  0  0  0  0  0
   -0.5738    5.2018    8.0104 H   0  0  0  0  0  0
   -0.7075    3.9187    9.1944 H   0  0  0  0  0  0
   -0.1590    0.1095   13.6574 H   0  0  0  0  0  0
   -2.9902    1.2087   11.7590 H   0  0  0  0  0  0
   -1.7371    1.5861   12.9319 H   0  0  0  0  0  0
   -1.4899    0.2880   11.7413 H   0  0  0  0  0  0
  1  2  1  0  0  0
  1 30  1  0  0  0
  1 31  1  0  0  0
  1 32  1  0  0  0
  2  3  1  0  0  0
  3  4  2  0  0  0
  3 27  1  0  0  0
  4  5  1  0  0  0
  4 33  1  0  0  0
  5  6  2  0  0  0
  5 34  1  0  0  0
  6  7  1  0  0  0
  6 26  1  0  0  0
  7  8  1  0  0  0
  7 35  1  0  0  0
  8  9  2  0  0  0
  8 16  1  0  0  0
  9 10  1  0  0  0
 10 11  2  0  0  0
 10 17  1  0  0  0
 11 12  1  0  0  0
 11 36  1  0  0  0
 12 13  1  0  0  0
 12 16  1  0  0  0
 13 14  2  0  0  0
 13 37  1  0  0  0
 14 15  1  0  0  0
 14 38  1  0  0  0
 15 16  2  0  0  0
 17 18  2  0  0  0
 17 22  1  0  0  0
 18 19  1  0  0  0
 18 39  1  0  0  0
 19 20  2  0  0  0
 19 40  1  0  0  0
 20 21  1  0  0  0
 20 23  1  0  0  0
 21 22  2  0  0  0
 21 41  1  0  0  0
 22 42  1  0  0  0
 23 24  2  0  0  0
 23 25  1  0  0  0
 25 43  1  0  0  0
 25 44  1  0  0  0
 26 27  2  0  0  0
 26 45  1  0  0  0
 27 28  1  0  0  0
 28 29  1  0  0  0
 29 46  1  0  0  0
 29 47  1  0  0  0
 29 48  1  0  0  0
M  END
> <s_m_entry_id>
989

> <IC50[nM]>
17.7

> <s_m_Source_Path>
/projects/mai/users/kmzp800_harry/pmx_colab/docking_jobs/syk

> <s_m_Source_File>
tnks2_lig.sdf

> <i_m_Source_File_Index>
2

> <s_m_job_name>
glide-dock_SP_tnks2_core_const

> <r_i_docking_score>
-7.33909649970697

> <r_i_glide_gscore>
-7.33909649970697

> <r_i_glide_emodel>
-50.5214387838944

$$$$
CHEMBL3265021
                    3D
 Schrodinger Suite 2021-4.
 47 51  0  0  1  0            999 V2000
   -4.5855   -3.0272   15.7955 C   0  0  0  0  0  0
   -3.9602   -2.1252   14.8929 O   0  0  0  0  0  0
   -2.5875   -1.9963   14.9547 C   0  0  0  0  0  0
   -1.7586   -2.8077   15.7675 C   0  0  0  0  0  0
   -0.3713   -2.5881   15.8173 C   0  0  0  0  0  0
    0.2257   -1.5585   15.0663 C   0  0  0  0  0  0
    1.6068   -1.3678   15.2551 N   0  0  0  0  0  0
    2.5245   -0.4426   14.7283 C   0  0  0  0  0  0
    2.1867    0.3520   13.7567 N   0  0  0  0  0  0
    3.0990    1.2564   13.2712 C   0  0  0  0  0  0
    4.4019    1.3292   13.7140 C   0  0  0  0  0  0
    4.7588    0.4923   14.7228 N   0  0  0  0  0  0
    5.9083    0.3857   15.4819 C   0  0  0  0  0  0
    5.6083   -0.4989   16.4876 C   0  0  0  0  0  0
    4.3621   -1.0614   16.3182 N   0  0  0  0  0  0
    3.8304   -0.4157   15.2873 C   0  0  0  0  0  0
    2.5459    2.2720   12.3621 C   0  0  0  0  0  0
    1.2348    2.7820   12.5409 C   0  0  0  0  0  0
    0.7388    3.8112   11.7182 C   0  0  0  0  0  0
    1.5747    4.3379   10.7223 C   0  0  0  0  0  0
    1.4506    5.3428    9.7792 N   0  0  0  0  0  0
    2.5614    5.5149    9.0172 N   0  0  0  0  0  0
    3.4149    4.6152    9.4419 C   0  0  0  0  0  0
    2.8864    3.8440   10.5105 C   0  0  0  0  0  0
    3.3519    2.8040   11.3355 C   0  0  0  0  0  0
   -0.5978   -0.7785   14.2206 C   0  0  0  0  0  0
   -1.9992   -0.9870   14.1609 C   0  0  0  0  0  0
   -2.8494   -0.2286   13.3793 O   0  0  0  0  0  0
   -2.2764    0.6824   12.4498 C   0  0  0  0  0  0
   -5.6668   -2.9665   15.6739 H   0  0  0  0  0  0
   -4.3562   -2.7780   16.8332 H   0  0  0  0  0  0
   -4.2901   -4.0584   15.5979 H   0  0  0  0  0  0
   -2.1618   -3.5955   16.3864 H   0  0  0  0  0  0
    0.2311   -3.2038   16.4715 H   0  0  0  0  0  0
    2.0206   -1.9547   15.9688 H   0  0  0  0  0  0
    5.1284    2.0659   13.3889 H   0  0  0  0  0  0
    6.7630    1.0138   15.2814 H   0  0  0  0  0  0
    6.1355   -0.7589   17.3794 H   0  0  0  0  0  0
    0.6095    2.4003   13.3346 H   0  0  0  0  0  0
   -0.2541    4.2066   11.8713 H   0  0  0  0  0  0
    0.6462    5.9388    9.6482 H   0  0  0  0  0  0
    4.3991    4.5298    9.0174 H   0  0  0  0  0  0
    4.3524    2.4286   11.1824 H   0  0  0  0  0  0
   -0.1692    0.0116   13.6341 H   0  0  0  0  0  0
   -3.0652    1.1127   11.8328 H   0  0  0  0  0  0
   -1.7719    1.5039   12.9601 H   0  0  0  0  0  0
   -1.5733    0.1853   11.7793 H   0  0  0  0  0  0
  1  2  1  0  0  0
  1 30  1  0  0  0
  1 31  1  0  0  0
  1 32  1  0  0  0
  2  3  1  0  0  0
  3  4  2  0  0  0
  3 27  1  0  0  0
  4  5  1  0  0  0
  4 33  1  0  0  0
  5  6  2  0  0  0
  5 34  1  0  0  0
  6  7  1  0  0  0
  6 26  1  0  0  0
  7  8  1  0  0  0
  7 35  1  0  0  0
  8  9  2  0  0  0
  8 16  1  0  0  0
  9 10  1  0  0  0
 10 11  2  0  0  0
 10 17  1  0  0  0
 11 12  1  0  0  0
 11 36  1  0  0  0
 12 13  1  0  0  0
 12 16  1  0  0  0
 13 14  2  0  0  0
 13 37  1  0  0  0
 14 15  1  0  0  0
 14 38  1  0  0  0
 15 16  2  0  0  0
 17 18  2  0  0  0
 17 25  1  0  0  0
 18 19  1  0  0  0
 18 39  1  0  0  0
 19 20  2  0  0  0
 19 40  1  0  0  0
 20 21  1  0  0  0
 20 24  1  0  0  0
 21 22  1  0  0  0
 21 41  1  0  0  0
 22 23  2  0  0  0
 23 24  1  0  0  0
 23 42  1  0  0  0
 24 25  2  0  0  0
 25 43  1  0  0  0
 26 27  2  0  0  0
 26 44  1  0  0  0
 27 28  1  0  0  0
 28 29  1  0  0  0
 29 45  1  0  0  0
 29 46  1  0  0  0
 29 47  1  0  0  0
M  END
> <s_m_entry_id>
990

> <IC50[nM]>
10.4

> <s_m_Source_Path>
/projects/mai/users/kmzp800_harry/pmx_colab/docking_jobs/syk

> <s_m_Source_File>
tnks2_lig.sdf

> <i_m_Source_File_Index>
3

> <s_m_job_name>
glide-dock_SP_tnks2_core_const

> <r_i_docking_score>
-7.15585954801015

> <r_i_glide_gscore>
-7.15585954801015

> <r_i_glide_emodel>
-49.4568550889585

$$$$
CHEMBL3265016
                    3D
 Schrodinger Suite 2021-4.
 48 52  0  0  1  0            999 V2000
   -4.5897   -3.1950   15.2689 C   0  0  0  0  0  0
   -3.9512   -2.1336   14.5691 O   0  0  0  0  0  0
   -2.5907   -1.9700   14.7365 C   0  0  0  0  0  0
   -1.7890   -2.8146   15.5434 C   0  0  0  0  0  0
   -0.4113   -2.5705   15.6873 C   0  0  0  0  0  0
    0.2029   -1.4859   15.0335 C   0  0  0  0  0  0
    1.5734   -1.2911   15.2863 N   0  0  0  0  0  0
    2.5244   -0.4185   14.7317 C   0  0  0  0  0  0
    2.1996    0.3854   13.7543 N   0  0  0  0  0  0
    3.1314    1.2643   13.2468 C   0  0  0  0  0  0
    4.4358    1.2907   13.6870 C   0  0  0  0  0  0
    4.7702    0.4799   14.7199 N   0  0  0  0  0  0
    5.9172    0.3760   15.4810 C   0  0  0  0  0  0
    5.6087   -0.4968   16.4918 C   0  0  0  0  0  0
    4.3604   -1.0609   16.3200 N   0  0  0  0  0  0
    3.8312   -0.4134   15.2887 C   0  0  0  0  0  0
    2.6772    2.2340   12.2176 C   0  0  0  0  0  0
    3.5658    2.6751   11.2036 C   0  0  0  0  0  0
    3.1428    3.5231   10.1603 C   0  0  0  0  0  0
    1.8104    3.9823   10.0919 C   0  0  0  0  0  0
    1.0580    4.7702    9.1516 C   0  0  0  0  0  0
   -0.2080    4.8838    9.6652 C   0  0  0  0  0  0
   -0.2719    4.1926   10.8652 N   0  0  0  0  0  0
    0.9408    3.5977   11.1542 C   0  0  0  0  0  0
    1.3602    2.7494   12.2011 C   0  0  0  0  0  0
   -0.5978   -0.6529   14.2170 C   0  0  0  0  0  0
   -1.9863   -0.8882   14.0586 C   0  0  0  0  0  0
   -2.8062   -0.0930   13.2818 O   0  0  0  0  0  0
   -2.1948    0.8379   12.3952 C   0  0  0  0  0  0
   -5.6580   -3.1828   15.0480 H   0  0  0  0  0  0
   -4.4760   -3.0881   16.3502 H   0  0  0  0  0  0
   -4.2012   -4.1661   14.9565 H   0  0  0  0  0  0
   -2.2058   -3.6529   16.0805 H   0  0  0  0  0  0
    0.1719   -3.2203   16.3249 H   0  0  0  0  0  0
    1.9634   -1.8831   16.0078 H   0  0  0  0  0  0
    5.1903    1.9873   13.3399 H   0  0  0  0  0  0
    6.7771    0.9952   15.2741 H   0  0  0  0  0  0
    6.1338   -0.7505   17.3871 H   0  0  0  0  0  0
    4.5828    2.3129   11.1823 H   0  0  0  0  0  0
    3.8384    3.7987    9.3817 H   0  0  0  0  0  0
    1.4243    5.1844    8.2188 H   0  0  0  0  0  0
   -1.0707    5.4001    9.2687 H   0  0  0  0  0  0
   -1.1063    4.1422   11.4305 H   0  0  0  0  0  0
    0.6617    2.4644   12.9724 H   0  0  0  0  0  0
   -0.1661    0.1980   13.7256 H   0  0  0  0  0  0
   -2.9568    1.2780   11.7531 H   0  0  0  0  0  0
   -1.7139    1.6516   12.9425 H   0  0  0  0  0  0
   -1.4614    0.3541   11.7456 H   0  0  0  0  0  0
  1  2  1  0  0  0
  1 30  1  0  0  0
  1 31  1  0  0  0
  1 32  1  0  0  0
  2  3  1  0  0  0
  3  4  2  0  0  0
  3 27  1  0  0  0
  4  5  1  0  0  0
  4 33  1  0  0  0
  5  6  2  0  0  0
  5 34  1  0  0  0
  6  7  1  0  0  0
  6 26  1  0  0  0
  7  8  1  0  0  0
  7 35  1  0  0  0
  8  9  2  0  0  0
  8 16  1  0  0  0
  9 10  1  0  0  0
 10 11  2  0  0  0
 10 17  1  0  0  0
 11 12  1  0  0  0
 11 36  1  0  0  0
 12 13  1  0  0  0
 12 16  1  0  0  0
 13 14  2  0  0  0
 13 37  1  0  0  0
 14 15  1  0  0  0
 14 38  1  0  0  0
 15 16  2  0  0  0
 17 18  2  0  0  0
 17 25  1  0  0  0
 18 19  1  0  0  0
 18 39  1  0  0  0
 19 20  2  0  0  0
 19 40  1  0  0  0
 20 21  1  0  0  0
 20 24  1  0  0  0
 21 22  2  0  0  0
 21 41  1  0  0  0
 22 23  1  0  0  0
 22 42  1  0  0  0
 23 24  1  0  0  0
 23 43  1  0  0  0
 24 25  2  0  0  0
 25 44  1  0  0  0
 26 27  2  0  0  0
 26 45  1  0  0  0
 27 28  1  0  0  0
 28 29  1  0  0  0
 29 46  1  0  0  0
 29 47  1  0  0  0
 29 48  1  0  0  0
M  END
> <s_m_entry_id>
991

> <IC50[nM]>
2.7

> <s_m_Source_Path>
/projects/mai/users/kmzp800_harry/pmx_colab/docking_jobs/syk

> <s_m_Source_File>
tnks2_lig.sdf

> <i_m_Source_File_Index>
4

> <s_m_job_name>
glide-dock_SP_tnks2_core_const

> <r_i_docking_score>
-7.31627499483715

> <r_i_glide_gscore>
-7.31627499483715

> <r_i_glide_emodel>
-49.5639532703265

$$$$
CHEMBL3265028
                    3D
 Schrodinger Suite 2021-4.
 43 47  0  0  1  0            999 V2000
   -2.2073    1.1217   12.5770 C   0  0  0  0  0  0
   -2.7705   -0.0175   13.2389 O   0  0  0  0  0  0
   -1.9351   -0.8595   13.9495 C   0  0  0  0  0  0
   -2.5008   -2.0577   14.4283 C   0  0  0  0  0  0
   -1.7266   -2.9697   15.1677 C   0  0  0  0  0  0
   -0.3806   -2.6885   15.4495 C   0  0  0  0  0  0
    0.2146   -1.5006   14.9686 C   0  0  0  0  0  0
    1.5681   -1.2940   15.2742 N   0  0  0  0  0  0
    2.5275   -0.4303   14.7283 C   0  0  0  0  0  0
    2.1974    0.3667   13.7535 N   0  0  0  0  0  0
    3.1269    1.2267   13.2157 C   0  0  0  0  0  0
    4.4302    1.2709   13.6601 C   0  0  0  0  0  0
    4.7619    0.4797   14.7141 N   0  0  0  0  0  0
    5.9090    0.3607   15.4695 C   0  0  0  0  0  0
    5.6028   -0.4968   16.4902 C   0  0  0  0  0  0
    4.3462   -1.0437   16.3411 N   0  0  0  0  0  0
    3.8257   -0.4148   15.2966 C   0  0  0  0  0  0
    2.6318    2.2041   12.2121 C   0  0  0  0  0  0
    3.4971    2.7073   11.2066 C   0  0  0  0  0  0
    3.0524    3.6056   10.2143 C   0  0  0  0  0  0
    1.7189    4.0638   10.2144 C   0  0  0  0  0  0
    0.9066    4.9469    9.4259 C   0  0  0  0  0  0
   -0.3264    5.0243    9.8687 N   0  0  0  0  0  0
   -0.3562    4.2135   10.9542 N   0  0  0  0  0  0
    0.8608    3.5976   11.2321 C   0  0  0  0  0  0
    1.2941    2.6752   12.2099 C   0  0  0  0  0  0
   -0.5710   -0.5919   14.2173 C   0  0  0  0  0  0
   -2.9889    1.6664   12.0135 H   0  0  0  0  0  0
   -1.7767    1.7891   13.3212 H   0  0  0  0  0  0
   -1.4223    0.8283   11.8532 H   0  0  0  0  0  0
   -3.5430   -2.2843   14.2230 H   0  0  0  0  0  0
   -2.1814   -3.8678   15.5558 H   0  0  0  0  0  0
    0.1963   -3.3917   16.0325 H   0  0  0  0  0  0
    1.9517   -1.9287   15.9568 H   0  0  0  0  0  0
    5.1816    1.9521   13.2716 H   0  0  0  0  0  0
    6.7894    0.9414   15.2530 H   0  0  0  0  0  0
    6.1401   -0.7566   17.3769 H   0  0  0  0  0  0
    4.5238    2.3908   11.1577 H   0  0  0  0  0  0
    3.7396    3.9415    9.4423 H   0  0  0  0  0  0
    1.1846    5.5618    8.5718 H   0  0  0  0  0  0
   -1.2203    4.0920   11.4752 H   0  0  0  0  0  0
    0.6074    2.3304   12.9744 H   0  0  0  0  0  0
   -0.1465    0.3353   13.8794 H   0  0  0  0  0  0
  1  2  1  0  0  0
  1 28  1  0  0  0
  1 29  1  0  0  0
  1 30  1  0  0  0
  2  3  1  0  0  0
  3  4  2  0  0  0
  3 27  1  0  0  0
  4  5  1  0  0  0
  4 31  1  0  0  0
  5  6  2  0  0  0
  5 32  1  0  0  0
  6  7  1  0  0  0
  6 33  1  0  0  0
  7  8  1  0  0  0
  7 27  2  0  0  0
  8  9  1  0  0  0
  8 34  1  0  0  0
  9 10  2  0  0  0
  9 17  1  0  0  0
 10 11  1  0  0  0
 11 12  2  0  0  0
 11 18  1  0  0  0
 12 13  1  0  0  0
 12 35  1  0  0  0
 13 14  1  0  0  0
 13 17  1  0  0  0
 14 15  2  0  0  0
 14 36  1  0  0  0
 15 16  1  0  0  0
 15 37  1  0  0  0
 16 17  2  0  0  0
 18 19  2  0  0  0
 18 26  1  0  0  0
 19 20  1  0  0  0
 19 38  1  0  0  0
 20 21  2  0  0  0
 20 39  1  0  0  0
 21 22  1  0  0  0
 21 25  1  0  0  0
 22 23  2  0  0  0
 22 40  1  0  0  0
 23 24  1  0  0  0
 24 25  1  0  0  0
 24 41  1  0  0  0
 25 26  2  0  0  0
 26 42  1  0  0  0
 27 43  1  0  0  0
M  END
> <s_m_entry_id>
992

> <IC50[nM]>
8.5

> <s_m_Source_Path>
/projects/mai/users/kmzp800_harry/pmx_colab/docking_jobs/syk

> <s_m_Source_File>
tnks2_lig.sdf

> <i_m_Source_File_Index>
5

> <s_m_job_name>
glide-dock_SP_tnks2_core_const

> <r_i_docking_score>
-7.07994482473655

> <r_i_glide_gscore>
-7.07994482473655

> <r_i_glide_emodel>
-44.4259785960522

$$$$
CHEMBL3265012
                    3D
 Schrodinger Suite 2021-4.
 48 51  0  0  1  0            999 V2000
   -4.5846   -2.9629   15.8590 C   0  0  0  0  0  0
   -3.9580   -2.1255   14.8979 O   0  0  0  0  0  0
   -2.5855   -1.9950   14.9549 C   0  0  0  0  0  0
   -1.7558   -2.8048   15.7677 C   0  0  0  0  0  0
   -0.3691   -2.5814   15.8176 C   0  0  0  0  0  0
    0.2256   -1.5497   15.0676 C   0  0  0  0  0  0
    1.6058   -1.3573   15.2564 N   0  0  0  0  0  0
    2.5270   -0.4369   14.7277 C   0  0  0  0  0  0
    2.2003    0.3708   13.7550 N   0  0  0  0  0  0
    3.1250    1.2668   13.2529 C   0  0  0  0  0  0
    4.4307    1.2926   13.6884 C   0  0  0  0  0  0
    4.7643    0.4753   14.7183 N   0  0  0  0  0  0
    5.9116    0.3731   15.4765 C   0  0  0  0  0  0
    5.6028   -0.4985   16.4869 C   0  0  0  0  0  0
    4.3575   -1.0634   16.3219 N   0  0  0  0  0  0
    3.8293   -0.4184   15.2898 C   0  0  0  0  0  0
    2.6315    2.2418   12.2520 C   0  0  0  0  0  0
    1.2807    2.6623   12.2322 C   0  0  0  0  0  0
    0.8238    3.6036   11.2893 C   0  0  0  0  0  0
    1.7146    4.1694   10.3539 C   0  0  0  0  0  0
    1.2023    5.1618    9.3519 C   0  0  0  0  0  0
    0.1310    4.9916    8.7739 O   0  0  0  0  0  0
    1.9463    6.2534    9.1682 N   0  0  0  0  0  0
    3.0663    3.7564   10.3615 C   0  0  0  0  0  0
    3.9543    4.2601    9.4708 F   0  0  0  0  0  0
    3.5104    2.8041   11.2972 C   0  0  0  0  0  0
   -0.5980   -0.7708   14.2222 C   0  0  0  0  0  0
   -1.9988   -0.9846   14.1605 C   0  0  0  0  0  0
   -2.8507   -0.2293   13.3780 O   0  0  0  0  0  0
   -2.2797    0.6858   12.4504 C   0  0  0  0  0  0
   -5.6667   -2.8837   15.7536 H   0  0  0  0  0  0
   -4.3164   -4.0093   15.7125 H   0  0  0  0  0  0
   -4.3299   -2.6640   16.8767 H   0  0  0  0  0  0
   -2.1579   -3.5934   16.3860 H   0  0  0  0  0  0
    0.2349   -3.1958   16.4711 H   0  0  0  0  0  0
    2.0191   -1.9456   15.9689 H   0  0  0  0  0  0
    5.1855    1.9927   13.3490 H   0  0  0  0  0  0
    6.7712    0.9925   15.2694 H   0  0  0  0  0  0
    6.1295   -0.7463   17.3830 H   0  0  0  0  0  0
    0.5809    2.2648   12.9522 H   0  0  0  0  0  0
   -0.2151    3.9012   11.2961 H   0  0  0  0  0  0
    1.6302    6.9681    8.5309 H   0  0  0  0  0  0
    2.8011    6.3737    9.6915 H   0  0  0  0  0  0
    4.5470    2.5041   11.2650 H   0  0  0  0  0  0
   -0.1671    0.0198   13.6370 H   0  0  0  0  0  0
   -3.0684    1.1114   11.8302 H   0  0  0  0  0  0
   -1.7829    1.5112   12.9630 H   0  0  0  0  0  0
   -1.5705    0.1939   11.7817 H   0  0  0  0  0  0
  1  2  1  0  0  0
  1 31  1  0  0  0
  1 32  1  0  0  0
  1 33  1  0  0  0
  2  3  1  0  0  0
  3  4  2  0  0  0
  3 28  1  0  0  0
  4  5  1  0  0  0
  4 34  1  0  0  0
  5  6  2  0  0  0
  5 35  1  0  0  0
  6  7  1  0  0  0
  6 27  1  0  0  0
  7  8  1  0  0  0
  7 36  1  0  0  0
  8  9  2  0  0  0
  8 16  1  0  0  0
  9 10  1  0  0  0
 10 11  2  0  0  0
 10 17  1  0  0  0
 11 12  1  0  0  0
 11 37  1  0  0  0
 12 13  1  0  0  0
 12 16  1  0  0  0
 13 14  2  0  0  0
 13 38  1  0  0  0
 14 15  1  0  0  0
 14 39  1  0  0  0
 15 16  2  0  0  0
 17 18  2  0  0  0
 17 26  1  0  0  0
 18 19  1  0  0  0
 18 40  1  0  0  0
 19 20  2  0  0  0
 19 41  1  0  0  0
 20 21  1  0  0  0
 20 24  1  0  0  0
 21 22  2  0  0  0
 21 23  1  0  0  0
 23 42  1  0  0  0
 23 43  1  0  0  0
 24 25  1  0  0  0
 24 26  2  0  0  0
 26 44  1  0  0  0
 27 28  2  0  0  0
 27 45  1  0  0  0
 28 29  1  0  0  0
 29 30  1  0  0  0
 30 46  1  0  0  0
 30 47  1  0  0  0
 30 48  1  0  0  0
M  END
> <s_m_entry_id>
993

> <IC50[nM]>
18.6

> <s_m_Source_Path>
/projects/mai/users/kmzp800_harry/pmx_colab/docking_jobs/syk

> <s_m_Source_File>
tnks2_lig.sdf

> <i_m_Source_File_Index>
6

> <s_m_job_name>
glide-dock_SP_tnks2_core_const

> <r_i_docking_score>
-7.59888371954536

> <r_i_glide_gscore>
-7.59888371954536

> <r_i_glide_emodel>
-52.8166529537732

$$$$
CHEMBL3265004
                    3D
 Schrodinger Suite 2021-4.
 65 70  0  0  1  0            999 V2000
   -4.5848   -3.0203   15.7907 C   0  0  0  0  0  0
   -3.9596   -2.1201   14.8886 O   0  0  0  0  0  0
   -2.5870   -1.9918   14.9506 C   0  0  0  0  0  0
   -1.7584   -2.8037   15.7633 C   0  0  0  0  0  0
   -0.3716   -2.5805   15.8159 C   0  0  0  0  0  0
    0.2253   -1.5518   15.0633 C   0  0  0  0  0  0
    1.6064   -1.3636   15.2509 N   0  0  0  0  0  0
    2.5297   -0.4419   14.7277 C   0  0  0  0  0  0
    2.2033    0.3773   13.7729 N   0  0  0  0  0  0
    3.1233    1.2647   13.2563 C   0  0  0  0  0  0
    4.4309    1.2855   13.6861 C   0  0  0  0  0  0
    4.7633    0.4708   14.7194 N   0  0  0  0  0  0
    5.9109    0.3764   15.4814 C   0  0  0  0  0  0
    5.6045   -0.4962   16.4918 C   0  0  0  0  0  0
    4.3663   -1.0715   16.3202 N   0  0  0  0  0  0
    3.8283   -0.4236   15.2952 C   0  0  0  0  0  0
    2.6220    2.2458   12.2596 C   0  0  0  0  0  0
    3.4939    2.8044   11.2919 C   0  0  0  0  0  0
    3.0242    3.7011   10.3147 C   0  0  0  0  0  0
    1.6651    4.0568   10.2832 C   0  0  0  0  0  0
    0.7793    3.5372   11.2477 C   0  0  0  0  0  0
    1.2641    2.6545   12.2389 C   0  0  0  0  0  0
   -0.6836    3.8214   11.1317 C   0  0  0  0  0  0
   -1.3221    3.2791   10.2302 O   0  0  0  0  0  0
   -1.1995    4.6488   12.0628 N   0  0  0  0  0  0
   -2.5430    5.1212   12.1563 C   0  0  0  0  0  0
   -3.4242    5.1576   11.0502 C   0  0  0  0  0  0
   -4.7521    5.5914   11.2053 C   0  0  0  0  0  0
   -5.2437    6.0043   12.4616 C   0  0  0  0  0  0
   -4.3499    6.0041   13.5578 C   0  0  0  0  0  0
   -3.0090    5.5925   13.4018 C   0  0  0  0  0  0
   -6.6570    6.4036   12.6097 C   0  0  0  0  0  0
   -7.3900    6.5518   13.8200 C   0  0  0  0  0  0
   -8.6459    6.9135   13.6035 N   0  0  0  0  0  0
   -8.7378    6.9770   12.2586 N   0  0  0  0  0  0
   -7.5555    6.6803   11.6181 C   0  0  0  0  0  0
   -0.5977   -0.7707   14.2180 C   0  0  0  0  0  0
   -1.9999   -0.9775   14.1610 C   0  0  0  0  0  0
   -2.8524   -0.2137   13.3863 O   0  0  0  0  0  0
   -2.2854    0.7446   12.5025 C   0  0  0  0  0  0
   -5.6649   -2.9600   15.6654 H   0  0  0  0  0  0
   -4.2877   -4.0505   15.5933 H   0  0  0  0  0  0
   -4.3575   -2.7705   16.8276 H   0  0  0  0  0  0
   -2.1614   -3.5927   16.3810 H   0  0  0  0  0  0
    0.2313   -3.1944   16.4712 H   0  0  0  0  0  0
    2.0211   -1.9627   15.9548 H   0  0  0  0  0  0
    5.1861    1.9833   13.3429 H   0  0  0  0  0  0
    6.7697    0.9947   15.2706 H   0  0  0  0  0  0
    6.1217   -0.7941   17.3772 H   0  0  0  0  0  0
    4.5363    2.5248   11.2679 H   0  0  0  0  0  0
    3.7033    4.0989    9.5758 H   0  0  0  0  0  0
    1.3021    4.7178    9.5090 H   0  0  0  0  0  0
    0.5743    2.2481   12.9636 H   0  0  0  0  0  0
   -0.5668    4.9526   12.7895 H   0  0  0  0  0  0
   -3.1083    4.8568   10.0633 H   0  0  0  0  0  0
   -5.3983    5.5855   10.3402 H   0  0  0  0  0  0
   -4.6822    6.3219   14.5358 H   0  0  0  0  0  0
   -2.3499    5.6038   14.2591 H   0  0  0  0  0  0
   -7.0612    6.4042   14.8377 H   0  0  0  0  0  0
   -9.6072    7.2026   11.7967 H   0  0  0  0  0  0
   -7.4627    6.6859   10.5417 H   0  0  0  0  0  0
   -0.1654    0.0180   13.6322 H   0  0  0  0  0  0
   -3.0725    1.1933   11.8971 H   0  0  0  0  0  0
   -1.7974    1.5479   13.0562 H   0  0  0  0  0  0
   -1.5694    0.2888   11.8171 H   0  0  0  0  0  0
  1  2  1  0  0  0
  1 41  1  0  0  0
  1 42  1  0  0  0
  1 43  1  0  0  0
  2  3  1  0  0  0
  3  4  2  0  0  0
  3 38  1  0  0  0
  4  5  1  0  0  0
  4 44  1  0  0  0
  5  6  2  0  0  0
  5 45  1  0  0  0
  6  7  1  0  0  0
  6 37  1  0  0  0
  7  8  1  0  0  0
  7 46  1  0  0  0
  8  9  2  0  0  0
  8 16  1  0  0  0
  9 10  1  0  0  0
 10 11  2  0  0  0
 10 17  1  0  0  0
 11 12  1  0  0  0
 11 47  1  0  0  0
 12 13  1  0  0  0
 12 16  1  0  0  0
 13 14  2  0  0  0
 13 48  1  0  0  0
 14 15  1  0  0  0
 14 49  1  0  0  0
 15 16  2  0  0  0
 17 18  2  0  0  0
 17 22  1  0  0  0
 18 19  1  0  0  0
 18 50  1  0  0  0
 19 20  2  0  0  0
 19 51  1  0  0  0
 20 21  1  0  0  0
 20 52  1  0  0  0
 21 22  2  0  0  0
 21 23  1  0  0  0
 22 53  1  0  0  0
 23 24  2  0  0  0
 23 25  1  0  0  0
 25 26  1  0  0  0
 25 54  1  0  0  0
 26 27  2  0  0  0
 26 31  1  0  0  0
 27 28  1  0  0  0
 27 55  1  0  0  0
 28 29  2  0  0  0
 28 56  1  0  0  0
 29 30  1  0  0  0
 29 32  1  0  0  0
 30 31  2  0  0  0
 30 57  1  0  0  0
 31 58  1  0  0  0
 32 33  1  0  0  0
 32 36  2  0  0  0
 33 34  2  0  0  0
 33 59  1  0  0  0
 34 35  1  0  0  0
 35 36  1  0  0  0
 35 60  1  0  0  0
 36 61  1  0  0  0
 37 38  2  0  0  0
 37 62  1  0  0  0
 38 39  1  0  0  0
 39 40  1  0  0  0
 40 63  1  0  0  0
 40 64  1  0  0  0
 40 65  1  0  0  0
M  END
> <s_m_entry_id>
994

> <IC50[nM]>
11

> <s_m_Source_Path>
/projects/mai/users/kmzp800_harry/pmx_colab/docking_jobs/syk

> <s_m_Source_File>
tnks2_lig.sdf

> <i_m_Source_File_Index>
7

> <s_m_job_name>
glide-dock_SP_tnks2_core_const

> <r_i_docking_score>
-7.79247974405355

> <r_i_glide_gscore>
-7.79247974405355

> <r_i_glide_emodel>
-66.2459639195198

$$$$
CHEMBL3265031
                    3D
 Schrodinger Suite 2021-4.
 58 63  0  0  1  0            999 V2000
   -7.7368   -4.2119   13.4344 C   0  0  0  0  0  0
   -6.5555   -3.2336   13.5230 C   0  0  0  0  0  0
   -7.0264   -1.9952   13.0245 O   0  0  0  0  0  0
   -6.0846   -3.0712   14.9890 C   0  0  0  0  0  0
   -4.7906   -2.2457   15.1293 C   0  0  0  0  0  0
   -3.7645   -2.7368   14.2171 N   0  0  0  0  0  0
   -4.1480   -2.7959   12.8119 C   0  0  0  0  0  0
   -5.3821   -3.6934   12.6335 C   0  0  0  0  0  0
   -2.4628   -2.3000   14.4989 C   0  0  0  0  0  0
   -1.7054   -2.9831   15.4701 C   0  0  0  0  0  0
   -0.3704   -2.6137   15.7194 C   0  0  0  0  0  0
    0.2300   -1.5502   15.0129 C   0  0  0  0  0  0
    1.5747   -1.2775   15.3151 N   0  0  0  0  0  0
    2.5268   -0.4270   14.7287 C   0  0  0  0  0  0
    2.2043    0.3758   13.7509 N   0  0  0  0  0  0
    3.1299    1.2674   13.2459 C   0  0  0  0  0  0
    4.4339    1.2946   13.6860 C   0  0  0  0  0  0
    4.7655    0.4780   14.7177 N   0  0  0  0  0  0
    5.9153    0.3711   15.4715 C   0  0  0  0  0  0
    5.6114   -0.5062   16.4788 C   0  0  0  0  0  0
    4.3577   -1.0618   16.3216 N   0  0  0  0  0  0
    3.8309   -0.4158   15.2874 C   0  0  0  0  0  0
    2.6419    2.2492   12.2438 C   0  0  0  0  0  0
    3.5154    2.8038   11.2723 C   0  0  0  0  0  0
    3.0617    3.7241   10.3049 C   0  0  0  0  0  0
    1.7135    4.1400   10.2861 C   0  0  0  0  0  0
    0.8904    5.0118    9.5015 C   0  0  0  0  0  0
   -0.3477    5.0311    9.9366 N   0  0  0  0  0  0
   -0.3692    4.1941   11.0045 N   0  0  0  0  0  0
    0.8516    3.6037   11.2780 C   0  0  0  0  0  0
    1.2950    2.6812   12.2417 C   0  0  0  0  0  0
   -0.5505   -0.8362   14.0724 C   0  0  0  0  0  0
   -1.8830   -1.2087   13.8176 C   0  0  0  0  0  0
   -7.4576   -5.2010   13.8000 H   0  0  0  0  0  0
   -8.0852   -4.3314   12.4078 H   0  0  0  0  0  0
   -8.5818   -3.8707   14.0345 H   0  0  0  0  0  0
   -7.4744   -2.1677   12.2081 H   0  0  0  0  0  0
   -6.8750   -2.6304   15.5986 H   0  0  0  0  0  0
   -5.8975   -4.0601   15.4108 H   0  0  0  0  0  0
   -4.9892   -1.1965   14.9123 H   0  0  0  0  0  0
   -4.4320   -2.2913   16.1592 H   0  0  0  0  0  0
   -4.3567   -1.7940   12.4383 H   0  0  0  0  0  0
   -3.3211   -3.1883   12.2201 H   0  0  0  0  0  0
   -5.1095   -4.7169   12.8963 H   0  0  0  0  0  0
   -5.6756   -3.7150   11.5835 H   0  0  0  0  0  0
   -2.1360   -3.8132   16.0113 H   0  0  0  0  0  0
    0.1953   -3.1662   16.4567 H   0  0  0  0  0  0
    1.9666   -1.8437   16.0571 H   0  0  0  0  0  0
    5.1879    1.9951   13.3451 H   0  0  0  0  0  0
    6.7739    0.9922   15.2639 H   0  0  0  0  0  0
    6.1419   -0.7460   17.3741 H   0  0  0  0  0  0
    4.5513    2.5003   11.2399 H   0  0  0  0  0  0
    3.7489    4.1130    9.5689 H   0  0  0  0  0  0
    1.1657    5.6149    8.6489 H   0  0  0  0  0  0
   -1.2246    4.0523   11.5213 H   0  0  0  0  0  0
    0.6010    2.3038   12.9779 H   0  0  0  0  0  0
   -0.1604   -0.0018   13.5163 H   0  0  0  0  0  0
   -2.4438   -0.6606   13.0762 H   0  0  0  0  0  0
  1  2  1  0  0  0
  1 34  1  0  0  0
  1 35  1  0  0  0
  1 36  1  0  0  0
  2  3  1  0  0  0
  2  4  1  0  0  0
  2  8  1  0  0  0
  3 37  1  0  0  0
  4  5  1  0  0  0
  4 38  1  0  0  0
  4 39  1  0  0  0
  5  6  1  0  0  0
  5 40  1  0  0  0
  5 41  1  0  0  0
  6  7  1  0  0  0
  6  9  1  0  0  0
  7  8  1  0  0  0
  7 42  1  0  0  0
  7 43  1  0  0  0
  8 44  1  0  0  0
  8 45  1  0  0  0
  9 10  2  0  0  0
  9 33  1  0  0  0
 10 11  1  0  0  0
 10 46  1  0  0  0
 11 12  2  0  0  0
 11 47  1  0  0  0
 12 13  1  0  0  0
 12 32  1  0  0  0
 13 14  1  0  0  0
 13 48  1  0  0  0
 14 15  2  0  0  0
 14 22  1  0  0  0
 15 16  1  0  0  0
 16 17  2  0  0  0
 16 23  1  0  0  0
 17 18  1  0  0  0
 17 49  1  0  0  0
 18 19  1  0  0  0
 18 22  1  0  0  0
 19 20  2  0  0  0
 19 50  1  0  0  0
 20 21  1  0  0  0
 20 51  1  0  0  0
 21 22  2  0  0  0
 23 24  2  0  0  0
 23 31  1  0  0  0
 24 25  1  0  0  0
 24 52  1  0  0  0
 25 26  2  0  0  0
 25 53  1  0  0  0
 26 27  1  0  0  0
 26 30  1  0  0  0
 27 28  2  0  0  0
 27 54  1  0  0  0
 28 29  1  0  0  0
 29 30  1  0  0  0
 29 55  1  0  0  0
 30 31  2  0  0  0
 31 56  1  0  0  0
 32 33  2  0  0  0
 32 57  1  0  0  0
 33 58  1  0  0  0
M  END
> <s_m_entry_id>
995

> <IC50[nM]>
1.4

> <s_m_Source_Path>
/projects/mai/users/kmzp800_harry/pmx_colab/docking_jobs/syk

> <s_m_Source_File>
tnks2_lig.sdf

> <i_m_Source_File_Index>
8

> <s_m_job_name>
glide-dock_SP_tnks2_core_const

> <r_i_docking_score>
-7.31344498553998

> <r_i_glide_gscore>
-7.31344498553998

> <r_i_glide_emodel>
-50.4277325594219

$$$$
CHEMBL3265005
                    3D
 Schrodinger Suite 2021-4.
 48 51  0  0  1  0            999 V2000
   -4.1766   -3.2190   13.0221 C   0  0  0  0  0  0
   -3.8357   -2.2105   13.9588 O   0  0  0  0  0  0
   -2.4955   -2.0727   14.2358 C   0  0  0  0  0  0
   -1.9425   -0.7957   14.0418 C   0  0  0  0  0  0
   -0.5959   -0.5409   14.3422 C   0  0  0  0  0  0
    0.2290   -1.5581   14.8633 C   0  0  0  0  0  0
    1.5674   -1.3441   15.2379 N   0  0  0  0  0  0
    2.5201   -0.4430   14.7298 C   0  0  0  0  0  0
    2.1927    0.3653   13.7536 N   0  0  0  0  0  0
    3.1052    1.2804   13.2511 C   0  0  0  0  0  0
    4.4231    1.2734   13.6640 C   0  0  0  0  0  0
    4.7477    0.4669   14.7151 N   0  0  0  0  0  0
    5.8993    0.3642   15.4718 C   0  0  0  0  0  0
    5.5979   -0.4936   16.4981 C   0  0  0  0  0  0
    4.3398   -1.0313   16.3609 N   0  0  0  0  0  0
    3.8096   -0.4201   15.3017 C   0  0  0  0  0  0
    2.4999    2.3699   12.4362 C   0  0  0  0  0  0
    1.1046    2.3924   12.1741 C   0  0  0  0  0  0
    0.4991    3.4356   11.4544 C   0  0  0  0  0  0
    1.2725    4.5177   11.0144 C   0  0  0  0  0  0
    2.6527    4.5565   11.3029 C   0  0  0  0  0  0
    3.2606    3.4711   11.9731 C   0  0  0  0  0  0
    3.4661    5.7571   10.9323 C   0  0  0  0  0  0
    4.6510    5.6713   10.6178 O   0  0  0  0  0  0
    2.8290    6.9190   11.0593 N   0  0  0  0  0  0
   -0.3275   -2.8368   15.0674 C   0  0  0  0  0  0
   -1.6827   -3.1192   14.7474 C   0  0  0  0  0  0
   -2.2539   -4.3599   14.9430 O   0  0  0  0  0  0
   -1.4156   -5.4368   15.3413 C   0  0  0  0  0  0
   -5.1858   -3.0364   12.6537 H   0  0  0  0  0  0
   -3.5084   -3.1963   12.1632 H   0  0  0  0  0  0
   -4.1689   -4.2159   13.4606 H   0  0  0  0  0  0
   -2.5593    0.0061   13.6662 H   0  0  0  0  0  0
   -0.2327    0.4655   14.2205 H   0  0  0  0  0  0
    1.9544   -2.0143   15.8911 H   0  0  0  0  0  0
    5.1853    1.9693   13.3349 H   0  0  0  0  0  0
    6.7636    0.9716   15.2484 H   0  0  0  0  0  0
    6.1350   -0.7324   17.3908 H   0  0  0  0  0  0
    0.4641    1.5877   12.4948 H   0  0  0  0  0  0
   -0.5613    3.4098   11.2511 H   0  0  0  0  0  0
    0.7919    5.3228   10.4771 H   0  0  0  0  0  0
    4.3192    3.5284   12.1752 H   0  0  0  0  0  0
    3.3423    7.8000   11.0166 H   0  0  0  0  0  0
    1.8875    6.9310   11.4163 H   0  0  0  0  0  0
    0.3155   -3.5984   15.4820 H   0  0  0  0  0  0
   -2.0085   -6.3484   15.4144 H   0  0  0  0  0  0
   -0.6200   -5.6156   14.6177 H   0  0  0  0  0  0
   -0.9645   -5.2612   16.3162 H   0  0  0  0  0  0
  1  2  1  0  0  0
  1 30  1  0  0  0
  1 31  1  0  0  0
  1 32  1  0  0  0
  2  3  1  0  0  0
  3  4  2  0  0  0
  3 27  1  0  0  0
  4  5  1  0  0  0
  4 33  1  0  0  0
  5  6  2  0  0  0
  5 34  1  0  0  0
  6  7  1  0  0  0
  6 26  1  0  0  0
  7  8  1  0  0  0
  7 35  1  0  0  0
  8  9  2  0  0  0
  8 16  1  0  0  0
  9 10  1  0  0  0
 10 11  2  0  0  0
 10 17  1  0  0  0
 11 12  1  0  0  0
 11 36  1  0  0  0
 12 13  1  0  0  0
 12 16  1  0  0  0
 13 14  2  0  0  0
 13 37  1  0  0  0
 14 15  1  0  0  0
 14 38  1  0  0  0
 15 16  2  0  0  0
 17 18  2  0  0  0
 17 22  1  0  0  0
 18 19  1  0  0  0
 18 39  1  0  0  0
 19 20  2  0  0  0
 19 40  1  0  0  0
 20 21  1  0  0  0
 20 41  1  0  0  0
 21 22  2  0  0  0
 21 23  1  0  0  0
 22 42  1  0  0  0
 23 24  2  0  0  0
 23 25  1  0  0  0
 25 43  1  0  0  0
 25 44  1  0  0  0
 26 27  2  0  0  0
 26 45  1  0  0  0
 27 28  1  0  0  0
 28 29  1  0  0  0
 29 46  1  0  0  0
 29 47  1  0  0  0
 29 48  1  0  0  0
M  END
> <s_m_entry_id>
996

> <IC50[nM]>
27.1

> <s_m_Source_Path>
/projects/mai/users/kmzp800_harry/pmx_colab/docking_jobs/syk

> <s_m_Source_File>
tnks2_lig.sdf

> <i_m_Source_File_Index>
9

> <s_m_job_name>
glide-dock_SP_tnks2_core_const

> <r_i_docking_score>
-7.66849876159549

> <r_i_glide_gscore>
-7.66849876159549

> <r_i_glide_emodel>
-47.4156030340098

$$$$
CHEMBL3265024
                    3D
 Schrodinger Suite 2021-4.
 50 54  0  0  1  0            999 V2000
   -4.5764   -3.2662   15.0146 C   0  0  0  0  0  0
   -3.9428   -2.1383   14.4195 O   0  0  0  0  0  0
   -2.5892   -1.9654   14.6329 C   0  0  0  0  0  0
   -1.8017   -2.8305   15.4327 C   0  0  0  0  0  0
   -0.4289   -2.5847   15.6156 C   0  0  0  0  0  0
    0.1927   -1.4711   15.0141 C   0  0  0  0  0  0
    1.5597   -1.2784   15.2897 N   0  0  0  0  0  0
    2.5210   -0.4178   14.7333 C   0  0  0  0  0  0
    2.2045    0.3832   13.7499 N   0  0  0  0  0  0
    3.1327    1.2671   13.2398 C   0  0  0  0  0  0
    4.4370    1.2932   13.6835 C   0  0  0  0  0  0
    4.7672    0.4792   14.7177 N   0  0  0  0  0  0
    5.9057    0.3953   15.4922 C   0  0  0  0  0  0
    5.6045   -0.4952   16.4942 C   0  0  0  0  0  0
    4.3556   -1.0582   16.3225 N   0  0  0  0  0  0
    3.8284   -0.4151   15.2881 C   0  0  0  0  0  0
    2.6539    2.2349   12.2193 C   0  0  0  0  0  0
    3.5297    2.7428   11.2266 C   0  0  0  0  0  0
    3.0727    3.6096   10.2144 C   0  0  0  0  0  0
    1.7233    4.0068   10.1855 C   0  0  0  0  0  0
    1.2598    4.8276    9.1822 O   0  0  0  0  0  0
   -0.1468    4.7645    8.8862 C   0  0  0  0  0  0
   -1.0242    4.6313   10.1473 C   0  0  0  0  0  0
   -2.1868    5.0257   10.1517 O   0  0  0  0  0  0
   -0.4782    4.0257   11.2084 N   0  0  0  0  0  0
    0.8568    3.5739   11.2103 C   0  0  0  0  0  0
    1.3169    2.7016   12.2171 C   0  0  0  0  0  0
   -0.5981   -0.6083   14.2179 C   0  0  0  0  0  0
   -1.9789   -0.8492   14.0168 C   0  0  0  0  0  0
   -2.7866   -0.0251   13.2598 O   0  0  0  0  0  0
   -2.1678    0.9676   12.4473 C   0  0  0  0  0  0
   -5.6347   -3.2714   14.7495 H   0  0  0  0  0  0
   -4.5039   -3.2371   16.1047 H   0  0  0  0  0  0
   -4.1392   -4.2001   14.6550 H   0  0  0  0  0  0
   -2.2270   -3.6881   15.9359 H   0  0  0  0  0  0
    0.1426   -3.2553   16.2445 H   0  0  0  0  0  0
    1.9454   -1.8856   16.0017 H   0  0  0  0  0  0
    5.1942    1.9931   13.3472 H   0  0  0  0  0  0
    6.7585    1.0253   15.2892 H   0  0  0  0  0  0
    6.1314   -0.7469   17.3869 H   0  0  0  0  0  0
    4.5617    2.4287   11.2077 H   0  0  0  0  0  0
    3.7567    3.9564    9.4537 H   0  0  0  0  0  0
   -0.4332    5.6624    8.3372 H   0  0  0  0  0  0
   -0.3388    3.9206    8.2199 H   0  0  0  0  0  0
   -1.0426    3.8782   12.0309 H   0  0  0  0  0  0
    0.6343    2.3721   12.9865 H   0  0  0  0  0  0
   -0.1693    0.2766   13.7875 H   0  0  0  0  0  0
   -2.9189    1.4324   11.8094 H   0  0  0  0  0  0
   -1.7293    1.7600   13.0574 H   0  0  0  0  0  0
   -1.3995    0.5382   11.7989 H   0  0  0  0  0  0
  1  2  1  0  0  0
  1 32  1  0  0  0
  1 33  1  0  0  0
  1 34  1  0  0  0
  2  3  1  0  0  0
  3  4  2  0  0  0
  3 29  1  0  0  0
  4  5  1  0  0  0
  4 35  1  0  0  0
  5  6  2  0  0  0
  5 36  1  0  0  0
  6  7  1  0  0  0
  6 28  1  0  0  0
  7  8  1  0  0  0
  7 37  1  0  0  0
  8  9  2  0  0  0
  8 16  1  0  0  0
  9 10  1  0  0  0
 10 11  2  0  0  0
 10 17  1  0  0  0
 11 12  1  0  0  0
 11 38  1  0  0  0
 12 13  1  0  0  0
 12 16  1  0  0  0
 13 14  2  0  0  0
 13 39  1  0  0  0
 14 15  1  0  0  0
 14 40  1  0  0  0
 15 16  2  0  0  0
 17 18  2  0  0  0
 17 27  1  0  0  0
 18 19  1  0  0  0
 18 41  1  0  0  0
 19 20  2  0  0  0
 19 42  1  0  0  0
 20 21  1  0  0  0
 20 26  1  0  0  0
 21 22  1  0  0  0
 22 23  1  0  0  0
 22 43  1  0  0  0
 22 44  1  0  0  0
 23 24  2  0  0  0
 23 25  1  0  0  0
 25 26  1  0  0  0
 25 45  1  0  0  0
 26 27  2  0  0  0
 27 46  1  0  0  0
 28 29  2  0  0  0
 28 47  1  0  0  0
 29 30  1  0  0  0
 30 31  1  0  0  0
 31 48  1  0  0  0
 31 49  1  0  0  0
 31 50  1  0  0  0
M  END
> <s_m_entry_id>
997

> <IC50[nM]>
2.3

> <s_m_Source_Path>
/projects/mai/users/kmzp800_harry/pmx_colab/docking_jobs/syk

> <s_m_Source_File>
tnks2_lig.sdf

> <i_m_Source_File_Index>
10

> <s_m_job_name>
glide-dock_SP_tnks2_core_const

> <r_i_docking_score>
-7.3275055034822

> <r_i_glide_gscore>
-7.3275055034822

> <r_i_glide_emodel>
-52.8776009624483

$$$$
CHEMBL3265010
                    3D
 Schrodinger Suite 2021-4.
 52 55  0  0  1  0            999 V2000
   -4.4615   -3.4956   14.5553 C   0  0  0  0  0  0
   -3.8690   -2.2743   14.1342 O   0  0  0  0  0  0
   -2.5360   -2.0630   14.4255 C   0  0  0  0  0  0
   -1.7427   -2.9672   15.1749 C   0  0  0  0  0  0
   -0.3895   -2.6870   15.4370 C   0  0  0  0  0  0
    0.2028   -1.4998   14.9589 C   0  0  0  0  0  0
    1.5579   -1.2904   15.2765 N   0  0  0  0  0  0
    2.5208   -0.4195   14.7341 C   0  0  0  0  0  0
    2.2048    0.3764   13.7445 N   0  0  0  0  0  0
    3.1310    1.2614   13.2379 C   0  0  0  0  0  0
    4.4348    1.2809   13.6891 C   0  0  0  0  0  0
    4.7616    0.4727   14.7246 N   0  0  0  0  0  0
    5.9185    0.3669   15.4737 C   0  0  0  0  0  0
    5.6108   -0.4977   16.4910 C   0  0  0  0  0  0
    4.3529   -1.0461   16.3365 N   0  0  0  0  0  0
    3.8220   -0.3992   15.3088 C   0  0  0  0  0  0
    2.6985    2.2542   12.2125 C   0  0  0  0  0  0
    3.6320    2.8029   11.3005 C   0  0  0  0  0  0
    3.2430    3.7193   10.3093 C   0  0  0  0  0  0
    1.8952    4.1261   10.1861 C   0  0  0  0  0  0
    1.4756    5.0209    9.2192 O   0  0  0  0  0  0
    2.4375    5.9375    8.7059 C   0  0  0  0  0  0
    0.9398    3.5959   11.0861 C   0  0  0  0  0  0
    1.3547    2.6866   12.0996 C   0  0  0  0  0  0
   -0.5119    3.9620   10.9920 C   0  0  0  0  0  0
   -1.1318    3.8768    9.9352 O   0  0  0  0  0  0
   -1.0795    4.3886   12.1239 N   0  0  0  0  0  0
   -0.5937   -0.5946   14.2209 C   0  0  0  0  0  0
   -1.9523   -0.8737   13.9390 C   0  0  0  0  0  0
   -2.7703   -0.0319   13.2114 O   0  0  0  0  0  0
   -2.1758    1.0635   12.5252 C   0  0  0  0  0  0
   -5.5022   -3.5253   14.2306 H   0  0  0  0  0  0
   -3.9520   -4.3553   14.1151 H   0  0  0  0  0  0
   -4.4560   -3.5857   15.6433 H   0  0  0  0  0  0
   -2.1477   -3.8794   15.5891 H   0  0  0  0  0  0
    0.1842   -3.3886   16.0288 H   0  0  0  0  0  0
    1.9382   -1.9209   15.9727 H   0  0  0  0  0  0
    5.1916    1.9810   13.3595 H   0  0  0  0  0  0
    6.7792    0.9849   15.2620 H   0  0  0  0  0  0
    6.1365   -0.7375   17.3894 H   0  0  0  0  0  0
    4.6713    2.5054   11.3293 H   0  0  0  0  0  0
    4.0057    4.0815    9.6387 H   0  0  0  0  0  0
    1.9385    6.6537    8.0453 H   0  0  0  0  0  0
    2.8994    6.5142    9.5134 H   0  0  0  0  0  0
    3.2267    5.4493    8.1260 H   0  0  0  0  0  0
    0.6172    2.2808   12.7782 H   0  0  0  0  0  0
   -2.0478    4.6674   12.1297 H   0  0  0  0  0  0
   -0.5118    4.4749   12.9530 H   0  0  0  0  0  0
   -0.1739    0.3339   13.8740 H   0  0  0  0  0  0
   -2.9251    1.5589   11.9000 H   0  0  0  0  0  0
   -1.7890    1.7994   13.2286 H   0  0  0  0  0  0
   -1.3752    0.7254   11.8645 H   0  0  0  0  0  0
  1  2  1  0  0  0
  1 32  1  0  0  0
  1 33  1  0  0  0
  1 34  1  0  0  0
  2  3  1  0  0  0
  3  4  2  0  0  0
  3 29  1  0  0  0
  4  5  1  0  0  0
  4 35  1  0  0  0
  5  6  2  0  0  0
  5 36  1  0  0  0
  6  7  1  0  0  0
  6 28  1  0  0  0
  7  8  1  0  0  0
  7 37  1  0  0  0
  8  9  2  0  0  0
  8 16  1  0  0  0
  9 10  1  0  0  0
 10 11  2  0  0  0
 10 17  1  0  0  0
 11 12  1  0  0  0
 11 38  1  0  0  0
 12 13  1  0  0  0
 12 16  1  0  0  0
 13 14  2  0  0  0
 13 39  1  0  0  0
 14 15  1  0  0  0
 14 40  1  0  0  0
 15 16  2  0  0  0
 17 18  2  0  0  0
 17 24  1  0  0  0
 18 19  1  0  0  0
 18 41  1  0  0  0
 19 20  2  0  0  0
 19 42  1  0  0  0
 20 21  1  0  0  0
 20 23  1  0  0  0
 21 22  1  0  0  0
 22 43  1  0  0  0
 22 44  1  0  0  0
 22 45  1  0  0  0
 23 24  2  0  0  0
 23 25  1  0  0  0
 24 46  1  0  0  0
 25 26  2  0  0  0
 25 27  1  0  0  0
 27 47  1  0  0  0
 27 48  1  0  0  0
 28 29  2  0  0  0
 28 49  1  0  0  0
 29 30  1  0  0  0
 30 31  1  0  0  0
 31 50  1  0  0  0
 31 51  1  0  0  0
 31 52  1  0  0  0
M  END
> <s_m_entry_id>
998

> <IC50[nM]>
37.4

> <s_m_Source_Path>
/projects/mai/users/kmzp800_harry/pmx_colab/docking_jobs/syk

> <s_m_Source_File>
tnks2_lig.sdf

> <i_m_Source_File_Index>
11

> <s_m_job_name>
glide-dock_SP_tnks2_core_const

> <r_i_docking_score>
-7.32665034521485

> <r_i_glide_gscore>
-7.32665034521485

> <r_i_glide_emodel>
-51.3259814578271

$$$$
CHEMBL3265014
                    3D
 Schrodinger Suite 2021-4.
 52 55  0  0  1  0            999 V2000
   -4.5837   -3.0234   15.8389 C   0  0  0  0  0  0
   -3.9623   -2.1434   14.9117 O   0  0  0  0  0  0
   -2.5897   -2.0126   14.9654 C   0  0  0  0  0  0
   -1.7562   -2.8181   15.7779 C   0  0  0  0  0  0
   -0.3695   -2.5962   15.8185 C   0  0  0  0  0  0
    0.2249   -1.5671   15.0644 C   0  0  0  0  0  0
    1.6072   -1.3733   15.2491 N   0  0  0  0  0  0
    2.5274   -0.4449   14.7282 C   0  0  0  0  0  0
    2.1957    0.3594   13.7557 N   0  0  0  0  0  0
    3.1079    1.2699   13.2617 C   0  0  0  0  0  0
    4.4196    1.2956   13.6886 C   0  0  0  0  0  0
    4.7614    0.4750   14.7180 N   0  0  0  0  0  0
    5.9054    0.3779   15.4864 C   0  0  0  0  0  0
    5.5986   -0.4925   16.5027 C   0  0  0  0  0  0
    4.3604   -1.0694   16.3225 N   0  0  0  0  0  0
    3.8301   -0.4213   15.2923 C   0  0  0  0  0  0
    2.5492    2.2721   12.3117 C   0  0  0  0  0  0
    1.1514    2.4831   12.2194 C   0  0  0  0  0  0
    0.5966    3.3815   11.2915 C   0  0  0  0  0  0
    1.4281    4.1253   10.4296 C   0  0  0  0  0  0
    0.8122    5.0388    9.4036 C   0  0  0  0  0  0
    1.2746    6.1449    9.1392 O   0  0  0  0  0  0
   -0.2468    4.5451    8.7568 N   0  0  0  0  0  0
    2.8323    4.0131   10.5834 C   0  0  0  0  0  0
    3.6828    4.8090    9.8629 O   0  0  0  0  0  0
    4.1548    5.9169   10.6195 C   0  0  0  0  0  0
    3.3759    3.0775   11.4921 C   0  0  0  0  0  0
   -0.6036   -0.7951   14.2174 C   0  0  0  0  0  0
   -2.0058   -1.0076   14.1633 C   0  0  0  0  0  0
   -2.8627   -0.2594   13.3799 O   0  0  0  0  0  0
   -2.3015    0.6675   12.4615 C   0  0  0  0  0  0
   -5.6663   -2.9596   15.7258 H   0  0  0  0  0  0
   -4.2953   -4.0605   15.6599 H   0  0  0  0  0  0
   -4.3441   -2.7536   16.8693 H   0  0  0  0  0  0
   -2.1554   -3.6029   16.4030 H   0  0  0  0  0  0
    0.2366   -3.2083   16.4725 H   0  0  0  0  0  0
    2.0210   -1.9610   15.9620 H   0  0  0  0  0  0
    5.1692    2.0045   13.3568 H   0  0  0  0  0  0
    6.7604    1.0055   15.2845 H   0  0  0  0  0  0
    6.1228   -0.7373   17.4014 H   0  0  0  0  0  0
    0.4736    1.9410   12.8580 H   0  0  0  0  0  0
   -0.4776    3.4867   11.2447 H   0  0  0  0  0  0
   -0.6995    5.1024    8.0471 H   0  0  0  0  0  0
   -0.5772    3.6176    8.9706 H   0  0  0  0  0  0
    4.4302    6.7265    9.9461 H   0  0  0  0  0  0
    3.3970    6.3129   11.2987 H   0  0  0  0  0  0
    5.0320    5.6421   11.2059 H   0  0  0  0  0  0
    4.4498    2.9894   11.5464 H   0  0  0  0  0  0
   -0.1737   -0.0131   13.6235 H   0  0  0  0  0  0
   -3.0929    1.0783   11.8349 H   0  0  0  0  0  0
   -1.8304    1.5000   12.9841 H   0  0  0  0  0  0
   -1.5751    0.1942   11.7992 H   0  0  0  0  0  0
  1  2  1  0  0  0
  1 32  1  0  0  0
  1 33  1  0  0  0
  1 34  1  0  0  0
  2  3  1  0  0  0
  3  4  2  0  0  0
  3 29  1  0  0  0
  4  5  1  0  0  0
  4 35  1  0  0  0
  5  6  2  0  0  0
  5 36  1  0  0  0
  6  7  1  0  0  0
  6 28  1  0  0  0
  7  8  1  0  0  0
  7 37  1  0  0  0
  8  9  2  0  0  0
  8 16  1  0  0  0
  9 10  1  0  0  0
 10 11  2  0  0  0
 10 17  1  0  0  0
 11 12  1  0  0  0
 11 38  1  0  0  0
 12 13  1  0  0  0
 12 16  1  0  0  0
 13 14  2  0  0  0
 13 39  1  0  0  0
 14 15  1  0  0  0
 14 40  1  0  0  0
 15 16  2  0  0  0
 17 18  2  0  0  0
 17 27  1  0  0  0
 18 19  1  0  0  0
 18 41  1  0  0  0
 19 20  2  0  0  0
 19 42  1  0  0  0
 20 21  1  0  0  0
 20 24  1  0  0  0
 21 22  2  0  0  0
 21 23  1  0  0  0
 23 43  1  0  0  0
 23 44  1  0  0  0
 24 25  1  0  0  0
 24 27  2  0  0  0
 25 26  1  0  0  0
 26 45  1  0  0  0
 26 46  1  0  0  0
 26 47  1  0  0  0
 27 48  1  0  0  0
 28 29  2  0  0  0
 28 49  1  0  0  0
 29 30  1  0  0  0
 30 31  1  0  0  0
 31 50  1  0  0  0
 31 51  1  0  0  0
 31 52  1  0  0  0
M  END
> <s_m_entry_id>
999

> <IC50[nM]>
23.8

> <s_m_Source_Path>
/projects/mai/users/kmzp800_harry/pmx_colab/docking_jobs/syk

> <s_m_Source_File>
tnks2_lig.sdf

> <i_m_Source_File_Index>
12

> <s_m_job_name>
glide-dock_SP_tnks2_core_const

> <r_i_docking_score>
-7.13944539713089

> <r_i_glide_gscore>
-7.13944539713089

> <r_i_glide_emodel>
-45.8699389937341

$$$$
CHEMBL3265023
                    3D
 Schrodinger Suite 2021-4.
 50 54  0  0  1  0            999 V2000
   -4.5878   -2.9595   15.8673 C   0  0  0  0  0  0
   -3.9635   -2.1056   14.9184 O   0  0  0  0  0  0
   -2.5897   -1.9854   14.9654 C   0  0  0  0  0  0
   -1.7604   -2.7968   15.7764 C   0  0  0  0  0  0
   -0.3720   -2.5837   15.8180 C   0  0  0  0  0  0
    0.2264   -1.5583   15.0644 C   0  0  0  0  0  0
    1.6085   -1.3735   15.2516 N   0  0  0  0  0  0
    2.5272   -0.4469   14.7287 C   0  0  0  0  0  0
    2.1869    0.3524   13.7502 N   0  0  0  0  0  0
    3.1084    1.2560   13.2689 C   0  0  0  0  0  0
    4.4314    1.2666   13.6583 C   0  0  0  0  0  0
    4.7572    0.4755   14.7136 N   0  0  0  0  0  0
    5.9039    0.3790   15.4780 C   0  0  0  0  0  0
    5.6022   -0.4971   16.4894 C   0  0  0  0  0  0
    4.3557   -1.0579   16.3238 N   0  0  0  0  0  0
    3.8256   -0.4135   15.2872 C   0  0  0  0  0  0
    2.5259    2.2697   12.3595 C   0  0  0  0  0  0
    3.2391    2.8004   11.2566 C   0  0  0  0  0  0
    2.6119    3.6734   10.3448 C   0  0  0  0  0  0
    1.2721    4.0436   10.5619 C   0  0  0  0  0  0
    0.5497    3.6019   11.6985 C   0  0  0  0  0  0
   -0.7403    4.2083   11.5935 C   0  0  0  0  0  0
   -0.8537    4.9070   10.4908 N   0  0  0  0  0  0
    0.3476    4.8053    9.8620 N   0  0  0  0  0  0
    0.4917    5.4339    8.5711 C   0  0  0  0  0  0
    1.2023    2.7246   12.5872 C   0  0  0  0  0  0
   -0.5975   -0.7809   14.2164 C   0  0  0  0  0  0
   -1.9998   -0.9836   14.1627 C   0  0  0  0  0  0
   -2.8492   -0.2235   13.3819 O   0  0  0  0  0  0
   -2.2742    0.6877   12.4543 C   0  0  0  0  0  0
   -5.6692   -2.8694   15.7733 H   0  0  0  0  0  0
   -4.3290   -4.0061   15.6958 H   0  0  0  0  0  0
   -4.3211   -2.6870   16.8905 H   0  0  0  0  0  0
   -2.1652   -3.5813   16.3997 H   0  0  0  0  0  0
    0.2307   -3.1993   16.4717 H   0  0  0  0  0  0
    2.0211   -1.9603   15.9662 H   0  0  0  0  0  0
    5.1731    1.9754   13.3066 H   0  0  0  0  0  0
    6.7644    0.9953   15.2667 H   0  0  0  0  0  0
    6.1320   -0.7532   17.3811 H   0  0  0  0  0  0
    4.2564    2.4855   11.0728 H   0  0  0  0  0  0
    3.1441    4.0351    9.4786 H   0  0  0  0  0  0
   -1.5809    4.1298   12.2671 H   0  0  0  0  0  0
   -0.0021    4.8003    7.8286 H   0  0  0  0  0  0
    0.0213    6.4163    8.5824 H   0  0  0  0  0  0
    1.5474    5.5545    8.3195 H   0  0  0  0  0  0
    0.6526    2.3706   13.4471 H   0  0  0  0  0  0
   -0.1694    0.0046   13.6241 H   0  0  0  0  0  0
   -3.0614    1.1310   11.8442 H   0  0  0  0  0  0
   -1.7585    1.5009   12.9672 H   0  0  0  0  0  0
   -1.5797    0.1858   11.7772 H   0  0  0  0  0  0
  1  2  1  0  0  0
  1 31  1  0  0  0
  1 32  1  0  0  0
  1 33  1  0  0  0
  2  3  1  0  0  0
  3  4  2  0  0  0
  3 28  1  0  0  0
  4  5  1  0  0  0
  4 34  1  0  0  0
  5  6  2  0  0  0
  5 35  1  0  0  0
  6  7  1  0  0  0
  6 27  1  0  0  0
  7  8  1  0  0  0
  7 36  1  0  0  0
  8  9  2  0  0  0
  8 16  1  0  0  0
  9 10  1  0  0  0
 10 11  2  0  0  0
 10 17  1  0  0  0
 11 12  1  0  0  0
 11 37  1  0  0  0
 12 13  1  0  0  0
 12 16  1  0  0  0
 13 14  2  0  0  0
 13 38  1  0  0  0
 14 15  1  0  0  0
 14 39  1  0  0  0
 15 16  2  0  0  0
 17 18  2  0  0  0
 17 26  1  0  0  0
 18 19  1  0  0  0
 18 40  1  0  0  0
 19 20  2  0  0  0
 19 41  1  0  0  0
 20 21  1  0  0  0
 20 24  1  0  0  0
 21 22  1  0  0  0
 21 26  2  0  0  0
 22 23  2  0  0  0
 22 42  1  0  0  0
 23 24  1  0  0  0
 24 25  1  0  0  0
 25 43  1  0  0  0
 25 44  1  0  0  0
 25 45  1  0  0  0
 26 46  1  0  0  0
 27 28  2  0  0  0
 27 47  1  0  0  0
 28 29  1  0  0  0
 29 30  1  0  0  0
 30 48  1  0  0  0
 30 49  1  0  0  0
 30 50  1  0  0  0
M  END
> <s_m_entry_id>
1000

> <IC50[nM]>
20.9

> <s_m_Source_Path>
/projects/mai/users/kmzp800_harry/pmx_colab/docking_jobs/syk

> <s_m_Source_File>
tnks2_lig.sdf

> <i_m_Source_File_Index>
13

> <s_m_job_name>
glide-dock_SP_tnks2_core_const

> <r_i_docking_score>
-7.25676943740521

> <r_i_glide_gscore>
-7.25676943740521

> <r_i_glide_emodel>
-35.391151333996

$$$$
CHEMBL3264997
                    3D
 Schrodinger Suite 2021-4.
 60 64  0  0  1  0            999 V2000
   -4.5354   -3.2028   15.8103 C   0  0  0  0  0  0
   -3.9379   -2.2774   14.9125 O   0  0  0  0  0  0
   -2.5694   -2.1081   14.9741 C   0  0  0  0  0  0
   -1.7157   -2.9065   15.7714 C   0  0  0  0  0  0
   -0.3364   -2.6458   15.8183 C   0  0  0  0  0  0
    0.2290   -1.5874   15.0810 C   0  0  0  0  0  0
    1.6046   -1.3663   15.2699 N   0  0  0  0  0  0
    2.5156   -0.4415   14.7309 C   0  0  0  0  0  0
    2.1689    0.3729   13.7682 N   0  0  0  0  0  0
    3.0920    1.2698   13.2640 C   0  0  0  0  0  0
    4.4043    1.2899   13.6916 C   0  0  0  0  0  0
    4.7501    0.4741   14.7169 N   0  0  0  0  0  0
    5.9008    0.3743   15.4742 C   0  0  0  0  0  0
    5.6004   -0.4980   16.4889 C   0  0  0  0  0  0
    4.3519   -1.0585   16.3258 N   0  0  0  0  0  0
    3.8193   -0.4165   15.2918 C   0  0  0  0  0  0
    2.6135    2.2430   12.2451 C   0  0  0  0  0  0
    3.5281    2.8059   11.3191 C   0  0  0  0  0  0
    3.1055    3.6844   10.3078 C   0  0  0  0  0  0
    1.7455    4.0042   10.1856 C   0  0  0  0  0  0
    0.8081    3.4745   11.0952 C   0  0  0  0  0  0
    1.2499    2.6271   12.1428 C   0  0  0  0  0  0
   -0.6493    3.6988   10.8314 C   0  0  0  0  0  0
   -1.0984    3.4662    9.7086 O   0  0  0  0  0  0
   -1.3765    4.1858   11.8515 N   0  0  0  0  0  0
   -2.7556    4.5256   11.7908 C   0  0  0  0  0  0
   -3.7005    3.7102   11.1227 C   0  0  0  0  0  0
   -5.0599    4.0733   11.0924 C   0  0  0  0  0  0
   -5.4880    5.2477   11.7411 C   0  0  0  0  0  0
   -4.5539    6.0762   12.3961 C   0  0  0  0  0  0
   -3.1913    5.7062   12.4281 C   0  0  0  0  0  0
   -5.0000    7.3614   13.0184 C   0  0  0  0  0  0
   -5.9704    7.3520   13.8093 O   0  0  0  0  0  0
   -4.3742    8.4038   12.7286 O   0  5  0  0  0  0
   -0.6173   -0.8161   14.2515 C   0  0  0  0  0  0
   -2.0116   -1.0734   14.1918 C   0  0  0  0  0  0
   -2.8866   -0.3411   13.4173 O   0  0  0  0  0  0
   -2.3384    0.4976   12.4135 C   0  0  0  0  0  0
   -5.6192   -3.1675   15.6982 H   0  0  0  0  0  0
   -4.2162   -4.2241   15.6005 H   0  0  0  0  0  0
   -4.3041   -2.9581   16.8490 H   0  0  0  0  0  0
   -2.0943   -3.7144   16.3785 H   0  0  0  0  0  0
    0.2857   -3.2545   16.4606 H   0  0  0  0  0  0
    2.0259   -1.9479   15.9837 H   0  0  0  0  0  0
    5.1588    1.9894   13.3516 H   0  0  0  0  0  0
    6.7564    0.9986   15.2656 H   0  0  0  0  0  0
    6.1323   -0.7420   17.3831 H   0  0  0  0  0  0
    4.5742    2.5448   11.3468 H   0  0  0  0  0  0
    3.8204    4.0842    9.6043 H   0  0  0  0  0  0
    1.4186    4.6378    9.3733 H   0  0  0  0  0  0
    0.5257    2.2040   12.8232 H   0  0  0  0  0  0
   -0.8686    4.4809   12.6723 H   0  0  0  0  0  0
   -3.3912    2.8075   10.6176 H   0  0  0  0  0  0
   -5.7741    3.4543   10.5705 H   0  0  0  0  0  0
   -6.5306    5.5315   11.7115 H   0  0  0  0  0  0
   -2.4795    6.3464   12.9305 H   0  0  0  0  0  0
   -0.2103   -0.0003   13.6823 H   0  0  0  0  0  0
   -3.1457    0.8237   11.7630 H   0  0  0  0  0  0
   -1.8712    1.3839   12.8447 H   0  0  0  0  0  0
   -1.6151   -0.0325   11.7901 H   0  0  0  0  0  0
  1  2  1  0  0  0
  1 39  1  0  0  0
  1 40  1  0  0  0
  1 41  1  0  0  0
  2  3  1  0  0  0
  3  4  2  0  0  0
  3 36  1  0  0  0
  4  5  1  0  0  0
  4 42  1  0  0  0
  5  6  2  0  0  0
  5 43  1  0  0  0
  6  7  1  0  0  0
  6 35  1  0  0  0
  7  8  1  0  0  0
  7 44  1  0  0  0
  8  9  2  0  0  0
  8 16  1  0  0  0
  9 10  1  0  0  0
 10 11  2  0  0  0
 10 17  1  0  0  0
 11 12  1  0  0  0
 11 45  1  0  0  0
 12 13  1  0  0  0
 12 16  1  0  0  0
 13 14  2  0  0  0
 13 46  1  0  0  0
 14 15  1  0  0  0
 14 47  1  0  0  0
 15 16  2  0  0  0
 17 18  2  0  0  0
 17 22  1  0  0  0
 18 19  1  0  0  0
 18 48  1  0  0  0
 19 20  2  0  0  0
 19 49  1  0  0  0
 20 21  1  0  0  0
 20 50  1  0  0  0
 21 22  2  0  0  0
 21 23  1  0  0  0
 22 51  1  0  0  0
 23 24  2  0  0  0
 23 25  1  0  0  0
 25 26  1  0  0  0
 25 52  1  0  0  0
 26 27  2  0  0  0
 26 31  1  0  0  0
 27 28  1  0  0  0
 27 53  1  0  0  0
 28 29  2  0  0  0
 28 54  1  0  0  0
 29 30  1  0  0  0
 29 55  1  0  0  0
 30 31  2  0  0  0
 30 32  1  0  0  0
 31 56  1  0  0  0
 32 33  2  0  0  0
 32 34  1  0  0  0
 35 36  2  0  0  0
 35 57  1  0  0  0
 36 37  1  0  0  0
 37 38  1  0  0  0
 38 58  1  0  0  0
 38 59  1  0  0  0
 38 60  1  0  0  0
M  CHG  1  34  -1
M  END
> <s_m_entry_id>
1001

> <IC50[nM]>
8.9

> <s_m_Source_Path>
/projects/mai/users/kmzp800_harry/pmx_colab/docking_jobs/syk

> <s_m_Source_File>
tnks2_lig.sdf

> <i_m_Source_File_Index>
14

> <s_m_job_name>
glide-dock_SP_tnks2_core_const

> <r_i_docking_score>
-7.8267515534424

> <r_i_glide_gscore>
-7.8267515534424

> <r_i_glide_emodel>
-68.6092832045499

$$$$
CHEMBL3264998
                    3D
 Schrodinger Suite 2021-4.
 63 67  0  0  1  0            999 V2000
   -4.4553   -3.4598   14.3593 C   0  0  0  0  0  0
   -3.8707   -2.2010   14.0481 O   0  0  0  0  0  0
   -2.5377   -2.0105   14.3538 C   0  0  0  0  0  0
   -1.7472   -2.9524   15.0529 C   0  0  0  0  0  0
   -0.3970   -2.6865   15.3427 C   0  0  0  0  0  0
    0.2065   -1.4848   14.9224 C   0  0  0  0  0  0
    1.5577   -1.2868   15.2675 N   0  0  0  0  0  0
    2.5320   -0.4218   14.7298 C   0  0  0  0  0  0
    2.1973    0.3900   13.7582 N   0  0  0  0  0  0
    3.1251    1.2741   13.2434 C   0  0  0  0  0  0
    4.4281    1.2933   13.6959 C   0  0  0  0  0  0
    4.7609    0.4745   14.7256 N   0  0  0  0  0  0
    5.8938    0.3942   15.5084 C   0  0  0  0  0  0
    5.5861   -0.4947   16.5084 C   0  0  0  0  0  0
    4.3490   -1.0654   16.3312 N   0  0  0  0  0  0
    3.8273   -0.4211   15.2936 C   0  0  0  0  0  0
    2.6978    2.2526   12.2051 C   0  0  0  0  0  0
    3.6377    2.7225   11.2512 C   0  0  0  0  0  0
    3.2692    3.5923   10.2133 C   0  0  0  0  0  0
    1.9388    4.0202   10.0996 C   0  0  0  0  0  0
    0.9815    3.6031   11.0451 C   0  0  0  0  0  0
    1.3680    2.7393   12.1049 C   0  0  0  0  0  0
   -0.4470    4.0225   10.8658 C   0  0  0  0  0  0
   -0.9596    3.9568    9.7490 O   0  0  0  0  0  0
   -1.0451    4.4961   11.9748 N   0  0  0  0  0  0
   -2.3738    4.9806   12.1539 C   0  0  0  0  0  0
   -2.6764    5.5465   13.4057 C   0  0  0  0  0  0
   -3.9741    5.9997   13.7012 C   0  0  0  0  0  0
   -4.9846    5.9420   12.7205 C   0  0  0  0  0  0
   -6.3934    6.4343   13.0333 C   0  0  0  0  0  0
   -6.4415    7.9690   13.0144 C   0  0  0  0  0  0
   -5.5863    8.5915   13.6839 O   0  0  0  0  0  0
   -7.3746    8.5070   12.3777 O   0  5  0  0  0  0
   -4.6859    5.3951   11.4562 C   0  0  0  0  0  0
   -3.3960    4.9032   11.1743 C   0  0  0  0  0  0
   -0.5863   -0.5450   14.2176 C   0  0  0  0  0  0
   -1.9511   -0.7976   13.9325 C   0  0  0  0  0  0
   -2.7687    0.0985   13.2708 O   0  0  0  0  0  0
   -2.1804    1.2432   12.6661 C   0  0  0  0  0  0
   -5.4854   -3.4756   14.0025 H   0  0  0  0  0  0
   -3.9314   -4.2776   13.8623 H   0  0  0  0  0  0
   -4.4635   -3.6432   15.4360 H   0  0  0  0  0  0
   -2.1563   -3.8848   15.4064 H   0  0  0  0  0  0
    0.1790   -3.4179   15.8931 H   0  0  0  0  0  0
    1.9293   -1.9231   15.9616 H   0  0  0  0  0  0
    5.1872    1.9934   13.3658 H   0  0  0  0  0  0
    6.7442    1.0284   15.3183 H   0  0  0  0  0  0
    6.0931   -0.7523   17.4079 H   0  0  0  0  0  0
    4.6622    2.3855   11.2812 H   0  0  0  0  0  0
    4.0055    3.9165    9.4934 H   0  0  0  0  0  0
    1.6528    4.6673    9.2814 H   0  0  0  0  0  0
    0.6304    2.3945   12.8140 H   0  0  0  0  0  0
   -0.4489    4.5621   12.7881 H   0  0  0  0  0  0
   -1.9111    5.6122   14.1690 H   0  0  0  0  0  0
   -4.1899    6.4112   14.6766 H   0  0  0  0  0  0
   -6.6902    6.0833   14.0227 H   0  0  0  0  0  0
   -7.1084    6.0326   12.3134 H   0  0  0  0  0  0
   -5.4505    5.3370   10.6969 H   0  0  0  0  0  0
   -3.2228    4.4792   10.1981 H   0  0  0  0  0  0
   -0.1723    0.4061   13.9307 H   0  0  0  0  0  0
   -2.9459    1.7820   12.0975 H   0  0  0  0  0  0
   -1.7853    1.9329   13.4184 H   0  0  0  0  0  0
   -1.3870    0.9655   11.9731 H   0  0  0  0  0  0
  1  2  1  0  0  0
  1 40  1  0  0  0
  1 41  1  0  0  0
  1 42  1  0  0  0
  2  3  1  0  0  0
  3  4  2  0  0  0
  3 37  1  0  0  0
  4  5  1  0  0  0
  4 43  1  0  0  0
  5  6  2  0  0  0
  5 44  1  0  0  0
  6  7  1  0  0  0
  6 36  1  0  0  0
  7  8  1  0  0  0
  7 45  1  0  0  0
  8  9  2  0  0  0
  8 16  1  0  0  0
  9 10  1  0  0  0
 10 11  2  0  0  0
 10 17  1  0  0  0
 11 12  1  0  0  0
 11 46  1  0  0  0
 12 13  1  0  0  0
 12 16  1  0  0  0
 13 14  2  0  0  0
 13 47  1  0  0  0
 14 15  1  0  0  0
 14 48  1  0  0  0
 15 16  2  0  0  0
 17 18  2  0  0  0
 17 22  1  0  0  0
 18 19  1  0  0  0
 18 49  1  0  0  0
 19 20  2  0  0  0
 19 50  1  0  0  0
 20 21  1  0  0  0
 20 51  1  0  0  0
 21 22  2  0  0  0
 21 23  1  0  0  0
 22 52  1  0  0  0
 23 24  2  0  0  0
 23 25  1  0  0  0
 25 26  1  0  0  0
 25 53  1  0  0  0
 26 27  2  0  0  0
 26 35  1  0  0  0
 27 28  1  0  0  0
 27 54  1  0  0  0
 28 29  2  0  0  0
 28 55  1  0  0  0
 29 30  1  0  0  0
 29 34  1  0  0  0
 30 31  1  0  0  0
 30 56  1  0  0  0
 30 57  1  0  0  0
 31 32  2  0  0  0
 31 33  1  0  0  0
 34 35  2  0  0  0
 34 58  1  0  0  0
 35 59  1  0  0  0
 36 37  2  0  0  0
 36 60  1  0  0  0
 37 38  1  0  0  0
 38 39  1  0  0  0
 39 61  1  0  0  0
 39 62  1  0  0  0
 39 63  1  0  0  0
M  CHG  1  33  -1
M  END
> <s_m_entry_id>
1002

> <IC50[nM]>
2.6

> <s_m_Source_Path>
/projects/mai/users/kmzp800_harry/pmx_colab/docking_jobs/syk

> <s_m_Source_File>
tnks2_lig.sdf

> <i_m_Source_File_Index>
15

> <s_m_job_name>
glide-dock_SP_tnks2_core_const

> <r_i_docking_score>
-8.47919686494341

> <r_i_glide_gscore>
-8.47919686494341

> <r_i_glide_emodel>
-80.3237691191521

$$$$
CHEMBL3265027
                    3D
 Schrodinger Suite 2021-4.
 39 43  0  0  1  0            999 V2000
    1.5677   -1.2899   15.2939 N   0  0  0  0  0  0
    0.2241   -1.5592   14.9824 C   0  0  0  0  0  0
   -0.3736   -2.6384   15.6671 C   0  0  0  0  0  0
   -1.7181   -2.9865   15.4380 C   0  0  0  0  0  0
   -2.4853   -2.2564   14.5108 C   0  0  0  0  0  0
   -1.9050   -1.1776   13.8175 C   0  0  0  0  0  0
   -0.5620   -0.8259   14.0551 C   0  0  0  0  0  0
    2.5226   -0.4233   14.7316 C   0  0  0  0  0  0
    2.1925    0.3916   13.7626 N   0  0  0  0  0  0
    3.1193    1.2757   13.2484 C   0  0  0  0  0  0
    4.4277    1.2916   13.6827 C   0  0  0  0  0  0
    4.7595    0.4747   14.7149 N   0  0  0  0  0  0
    5.9087    0.3751   15.4741 C   0  0  0  0  0  0
    5.6062   -0.4992   16.4866 C   0  0  0  0  0  0
    4.3702   -1.0735   16.3196 N   0  0  0  0  0  0
    3.8283   -0.4194   15.2908 C   0  0  0  0  0  0
    2.6411    2.2509   12.2348 C   0  0  0  0  0  0
    3.5195    2.7749   11.2494 C   0  0  0  0  0  0
    3.0767    3.6776   10.2583 C   0  0  0  0  0  0
    1.7297    4.1019   10.2268 C   0  0  0  0  0  0
    0.9117    4.9578    9.4194 C   0  0  0  0  0  0
   -0.3251    5.0025    9.8536 N   0  0  0  0  0  0
   -0.3523    4.1991   10.9495 N   0  0  0  0  0  0
    0.8637    3.6040   11.2376 C   0  0  0  0  0  0
    1.3008    2.7003   12.2253 C   0  0  0  0  0  0
    1.9541   -1.8804   16.0200 H   0  0  0  0  0  0
    0.1989   -3.2103   16.3845 H   0  0  0  0  0  0
   -2.1603   -3.8120   15.9814 H   0  0  0  0  0  0
   -3.5141   -2.5233   14.3298 H   0  0  0  0  0  0
   -2.4824   -0.6162   13.0973 H   0  0  0  0  0  0
   -0.1678    0.0123   13.5045 H   0  0  0  0  0  0
    5.1866    1.9845   13.3423 H   0  0  0  0  0  0
    6.7668    0.9986   15.2702 H   0  0  0  0  0  0
    6.1379   -0.7476   17.3784 H   0  0  0  0  0  0
    4.5518    2.4634   11.2244 H   0  0  0  0  0  0
    3.7669    4.0416    9.5135 H   0  0  0  0  0  0
    1.1906    5.5383    8.5499 H   0  0  0  0  0  0
   -1.2078    4.0796   11.4707 H   0  0  0  0  0  0
    0.6098    2.3456   12.9724 H   0  0  0  0  0  0
  1  2  1  0  0  0
  1  8  1  0  0  0
  1 26  1  0  0  0
  2  3  2  0  0  0
  2  7  1  0  0  0
  3  4  1  0  0  0
  3 27  1  0  0  0
  4  5  2  0  0  0
  4 28  1  0  0  0
  5  6  1  0  0  0
  5 29  1  0  0  0
  6  7  2  0  0  0
  6 30  1  0  0  0
  7 31  1  0  0  0
  8  9  2  0  0  0
  8 16  1  0  0  0
  9 10  1  0  0  0
 10 11  2  0  0  0
 10 17  1  0  0  0
 11 12  1  0  0  0
 11 32  1  0  0  0
 12 13  1  0  0  0
 12 16  1  0  0  0
 13 14  2  0  0  0
 13 33  1  0  0  0
 14 15  1  0  0  0
 14 34  1  0  0  0
 15 16  2  0  0  0
 17 18  2  0  0  0
 17 25  1  0  0  0
 18 19  1  0  0  0
 18 35  1  0  0  0
 19 20  2  0  0  0
 19 36  1  0  0  0
 20 21  1  0  0  0
 20 24  1  0  0  0
 21 22  2  0  0  0
 21 37  1  0  0  0
 22 23  1  0  0  0
 23 24  1  0  0  0
 23 38  1  0  0  0
 24 25  2  0  0  0
 25 39  1  0  0  0
M  END
> <s_m_entry_id>
1003

> <IC50[nM]>
26.8

> <s_m_Source_Path>
/projects/mai/users/kmzp800_harry/pmx_colab/docking_jobs/syk

> <s_m_Source_File>
tnks2_lig.sdf

> <i_m_Source_File_Index>
16

> <s_m_job_name>
glide-dock_SP_tnks2_core_const

> <r_i_docking_score>
-6.95806547855823

> <r_i_glide_gscore>
-6.95806547855823

> <r_i_glide_emodel>
-39.2955933350969

$$$$
CHEMBL3265006
                    3D
 Schrodinger Suite 2021-4.
 51 54  0  0  1  0            999 V2000
   -2.2545    5.1465   12.8318 C   0  0  0  0  0  0
   -0.9506    4.5618   12.5572 N   0  0  0  0  0  0
   -0.5601    4.1264   11.3504 C   0  0  0  0  0  0
   -1.2683    4.1706   10.3451 O   0  0  0  0  0  0
    0.8441    3.6096   11.2857 C   0  0  0  0  0  0
    1.6961    4.0246   10.2426 C   0  0  0  0  0  0
    3.0303    3.5871   10.2166 C   0  0  0  0  0  0
    3.5061    2.7124   11.2117 C   0  0  0  0  0  0
    2.6514    2.2262   12.2308 C   0  0  0  0  0  0
    1.3220    2.7056   12.2602 C   0  0  0  0  0  0
    3.1330    1.2604   13.2478 C   0  0  0  0  0  0
    4.4366    1.2814   13.6839 C   0  0  0  0  0  0
    4.7625    0.4699   14.7207 N   0  0  0  0  0  0
    5.9065    0.3712   15.4848 C   0  0  0  0  0  0
    5.5945   -0.4955   16.5012 C   0  0  0  0  0  0
    4.3479   -1.0561   16.3368 N   0  0  0  0  0  0
    3.8229   -0.4213   15.2952 C   0  0  0  0  0  0
    2.5206   -0.4311   14.7291 C   0  0  0  0  0  0
    1.5398   -1.2868   15.2605 N   0  0  0  0  0  0
    0.1994   -1.4937   14.8841 C   0  0  0  0  0  0
   -0.3906   -2.7206   15.2422 C   0  0  0  0  0  0
   -1.7302   -2.9959   14.9131 C   0  0  0  0  0  0
   -2.5181   -2.0415   14.2208 C   0  0  0  0  0  0
   -3.8393   -2.2421   13.8733 O   0  0  0  0  0  0
   -4.4392   -3.4847   14.2037 C   0  0  0  0  0  0
   -1.9494   -0.7955   13.8783 C   0  0  0  0  0  0
   -2.7705    0.1077   13.2326 O   0  0  0  0  0  0
   -2.1657    1.2493   12.6503 C   0  0  0  0  0  0
   -0.5975   -0.5321   14.2162 C   0  0  0  0  0  0
    2.2024    0.3772   13.7521 N   0  0  0  0  0  0
   -2.3204    5.4185   13.8842 H   0  0  0  0  0  0
   -3.0496    4.4338   12.6118 H   0  0  0  0  0  0
   -2.4137    6.0427   12.2292 H   0  0  0  0  0  0
   -0.2773    4.5443   13.3112 H   0  0  0  0  0  0
    1.3405    4.7055    9.4782 H   0  0  0  0  0  0
    3.6890    3.9228    9.4296 H   0  0  0  0  0  0
    4.5303    2.3731   11.1622 H   0  0  0  0  0  0
    0.6606    2.3717   13.0466 H   0  0  0  0  0  0
    5.1901    1.9775   13.3346 H   0  0  0  0  0  0
    6.7699    0.9837   15.2715 H   0  0  0  0  0  0
    6.1190   -0.7430   17.3978 H   0  0  0  0  0  0
    1.9002   -1.9299   15.9552 H   0  0  0  0  0  0
    0.1799   -3.4663   15.7785 H   0  0  0  0  0  0
   -2.1319   -3.9508   15.2146 H   0  0  0  0  0  0
   -5.4725   -3.4880   13.8550 H   0  0  0  0  0  0
   -3.9138   -4.3142   13.7282 H   0  0  0  0  0  0
   -4.4544   -3.6478   15.2825 H   0  0  0  0  0  0
   -2.9115    1.8004   12.0777 H   0  0  0  0  0  0
   -1.7724    1.9223   13.4143 H   0  0  0  0  0  0
   -1.3632    0.9740   11.9633 H   0  0  0  0  0  0
   -0.1814    0.4331   13.9949 H   0  0  0  0  0  0
  1  2  1  0  0  0
  1 31  1  0  0  0
  1 32  1  0  0  0
  1 33  1  0  0  0
  2  3  1  0  0  0
  2 34  1  0  0  0
  3  4  2  0  0  0
  3  5  1  0  0  0
  5  6  2  0  0  0
  5 10  1  0  0  0
  6  7  1  0  0  0
  6 35  1  0  0  0
  7  8  2  0  0  0
  7 36  1  0  0  0
  8  9  1  0  0  0
  8 37  1  0  0  0
  9 10  2  0  0  0
  9 11  1  0  0  0
 10 38  1  0  0  0
 11 12  2  0  0  0
 11 30  1  0  0  0
 12 13  1  0  0  0
 12 39  1  0  0  0
 13 14  1  0  0  0
 13 17  1  0  0  0
 14 15  2  0  0  0
 14 40  1  0  0  0
 15 16  1  0  0  0
 15 41  1  0  0  0
 16 17  2  0  0  0
 17 18  1  0  0  0
 18 19  1  0  0  0
 18 30  2  0  0  0
 19 20  1  0  0  0
 19 42  1  0  0  0
 20 21  2  0  0  0
 20 29  1  0  0  0
 21 22  1  0  0  0
 21 43  1  0  0  0
 22 23  2  0  0  0
 22 44  1  0  0  0
 23 24  1  0  0  0
 23 26  1  0  0  0
 24 25  1  0  0  0
 25 45  1  0  0  0
 25 46  1  0  0  0
 25 47  1  0  0  0
 26 27  1  0  0  0
 26 29  2  0  0  0
 27 28  1  0  0  0
 28 48  1  0  0  0
 28 49  1  0  0  0
 28 50  1  0  0  0
 29 51  1  0  0  0
M  END
> <s_m_entry_id>
1004

> <IC50[nM]>
50.2

> <s_m_Source_Path>
/projects/mai/users/kmzp800_harry/pmx_colab/docking_jobs/syk

> <s_m_Source_File>
tnks2_lig.sdf

> <i_m_Source_File_Index>
17

> <s_m_job_name>
glide-dock_SP_tnks2_core_const

> <r_i_docking_score>
-7.12444358165735

> <r_i_glide_gscore>
-7.12444358165735

> <r_i_glide_emodel>
-51.4628532160437

$$$$
CHEMBL3265003
                    3D
 Schrodinger Suite 2021-4.
 65 70  0  0  1  0            999 V2000
   -4.6272   -3.1041   15.2110 C   0  0  0  0  0  0
   -3.9464   -2.1084   14.4542 O   0  0  0  0  0  0
   -2.5908   -1.9450   14.6528 C   0  0  0  0  0  0
   -1.8260   -2.7629   15.5165 C   0  0  0  0  0  0
   -0.4470   -2.5338   15.6943 C   0  0  0  0  0  0
    0.2046   -1.4890   15.0089 C   0  0  0  0  0  0
    1.5805   -1.3234   15.2554 N   0  0  0  0  0  0
    2.5295   -0.4293   14.7282 C   0  0  0  0  0  0
    2.1951    0.3949   13.7577 N   0  0  0  0  0  0
    3.1159    1.2778   13.2455 C   0  0  0  0  0  0
    4.4146    1.3120   13.7105 C   0  0  0  0  0  0
    4.7555    0.4875   14.7267 N   0  0  0  0  0  0
    5.9031    0.3888   15.4802 C   0  0  0  0  0  0
    5.6073   -0.4985   16.4880 C   0  0  0  0  0  0
    4.3616   -1.0642   16.3234 N   0  0  0  0  0  0
    3.8323   -0.4188   15.2939 C   0  0  0  0  0  0
    2.6451    2.2258   12.2031 C   0  0  0  0  0  0
    3.5628    2.7415   11.2557 C   0  0  0  0  0  0
    3.1531    3.6053   10.2236 C   0  0  0  0  0  0
    1.8045    3.9761   10.1146 C   0  0  0  0  0  0
    0.8643    3.5053   11.0531 C   0  0  0  0  0  0
    1.2902    2.6381   12.0943 C   0  0  0  0  0  0
   -0.5749    3.8769   10.8925 C   0  0  0  0  0  0
   -1.1298    3.6608    9.8179 O   0  0  0  0  0  0
   -1.1492    4.4512   11.9725 N   0  0  0  0  0  0
   -2.4710    4.9658   12.1150 C   0  0  0  0  0  0
   -3.4193    5.0022   11.0611 C   0  0  0  0  0  0
   -4.6946    5.5560   11.2597 C   0  0  0  0  0  0
   -5.0742    6.0690   12.5169 C   0  0  0  0  0  0
   -4.1454    6.0038   13.5800 C   0  0  0  0  0  0
   -2.8526    5.4782   13.3755 C   0  0  0  0  0  0
   -6.3875    6.6756   12.7098 C   0  0  0  0  0  0
   -7.1591    6.7977   13.8271 C   0  0  0  0  0  0
   -8.2877    7.5555   13.3975 C   0  0  0  0  0  0
   -8.2337    7.8660   12.1128 N   0  0  0  0  0  0
   -7.0770    7.3060   11.6979 N   0  0  0  0  0  0
   -0.5645   -0.6830   14.1303 C   0  0  0  0  0  0
   -1.9504   -0.9005   13.9491 C   0  0  0  0  0  0
   -2.7423   -0.1336   13.1166 O   0  0  0  0  0  0
   -2.1152    0.7760   12.2218 C   0  0  0  0  0  0
   -5.6909   -3.0930   14.9621 H   0  0  0  0  0  0
   -4.2525   -4.1043   14.9867 H   0  0  0  0  0  0
   -4.5431   -2.9185   16.2835 H   0  0  0  0  0  0
   -2.2792   -3.5694   16.0699 H   0  0  0  0  0  0
    0.1014   -3.1705   16.3758 H   0  0  0  0  0  0
    1.9570   -1.9256   15.9740 H   0  0  0  0  0  0
    5.1706    2.0074   13.3714 H   0  0  0  0  0  0
    6.7621    1.0004   15.2701 H   0  0  0  0  0  0
    6.1692   -0.7459   17.3699 H   0  0  0  0  0  0
    4.5990    2.4547   11.2960 H   0  0  0  0  0  0
    3.8779    3.9745    9.5094 H   0  0  0  0  0  0
    1.4990    4.6308    9.3101 H   0  0  0  0  0  0
    0.5581    2.2487   12.7897 H   0  0  0  0  0  0
   -0.5421    4.5832   12.7680 H   0  0  0  0  0  0
   -3.2034    4.6185   10.0767 H   0  0  0  0  0  0
   -5.3852    5.5826   10.4309 H   0  0  0  0  0  0
   -4.4069    6.3797   14.5593 H   0  0  0  0  0  0
   -2.1605    5.4545   14.2074 H   0  0  0  0  0  0
   -6.9529    6.4102   14.8147 H   0  0  0  0  0  0
   -9.1221    7.8933   13.9954 H   0  0  0  0  0  0
   -6.7698    7.3799   10.7377 H   0  0  0  0  0  0
   -0.0987    0.1241   13.5956 H   0  0  0  0  0  0
   -2.8715    1.2177   11.5718 H   0  0  0  0  0  0
   -1.6323    1.5912   12.7601 H   0  0  0  0  0  0
   -1.3863    0.2777   11.5806 H   0  0  0  0  0  0
  1  2  1  0  0  0
  1 41  1  0  0  0
  1 42  1  0  0  0
  1 43  1  0  0  0
  2  3  1  0  0  0
  3  4  2  0  0  0
  3 38  1  0  0  0
  4  5  1  0  0  0
  4 44  1  0  0  0
  5  6  2  0  0  0
  5 45  1  0  0  0
  6  7  1  0  0  0
  6 37  1  0  0  0
  7  8  1  0  0  0
  7 46  1  0  0  0
  8  9  2  0  0  0
  8 16  1  0  0  0
  9 10  1  0  0  0
 10 11  2  0  0  0
 10 17  1  0  0  0
 11 12  1  0  0  0
 11 47  1  0  0  0
 12 13  1  0  0  0
 12 16  1  0  0  0
 13 14  2  0  0  0
 13 48  1  0  0  0
 14 15  1  0  0  0
 14 49  1  0  0  0
 15 16  2  0  0  0
 17 18  2  0  0  0
 17 22  1  0  0  0
 18 19  1  0  0  0
 18 50  1  0  0  0
 19 20  2  0  0  0
 19 51  1  0  0  0
 20 21  1  0  0  0
 20 52  1  0  0  0
 21 22  2  0  0  0
 21 23  1  0  0  0
 22 53  1  0  0  0
 23 24  2  0  0  0
 23 25  1  0  0  0
 25 26  1  0  0  0
 25 54  1  0  0  0
 26 27  2  0  0  0
 26 31  1  0  0  0
 27 28  1  0  0  0
 27 55  1  0  0  0
 28 29  2  0  0  0
 28 56  1  0  0  0
 29 30  1  0  0  0
 29 32  1  0  0  0
 30 31  2  0  0  0
 30 57  1  0  0  0
 31 58  1  0  0  0
 32 36  1  0  0  0
 32 33  2  0  0  0
 33 34  1  0  0  0
 33 59  1  0  0  0
 34 60  1  0  0  0
 34 35  2  0  0  0
 35 36  1  0  0  0
 36 61  1  0  0  0
 37 38  2  0  0  0
 37 62  1  0  0  0
 38 39  1  0  0  0
 39 40  1  0  0  0
 40 63  1  0  0  0
 40 64  1  0  0  0
 40 65  1  0  0  0
M  END
> <s_m_entry_id>
1005

> <IC50[nM]>
11.7

> <s_m_Source_Path>
/projects/mai/users/kmzp800_harry/pmx_colab/docking_jobs/syk

> <s_m_Source_File>
tnks2_lig.sdf

> <i_m_Source_File_Index>
18

> <s_m_job_name>
glide-dock_SP_tnks2_core_const

> <r_i_docking_score>
-7.62200763622022

> <r_i_glide_gscore>
-7.62200763622022

> <r_i_glide_emodel>
-66.4844228879019

$$$$
CHEMBL3265018
                    3D
 Schrodinger Suite 2021-4.
 47 51  0  0  1  0            999 V2000
   -4.6111   -3.1073   15.3518 C   0  0  0  0  0  0
   -3.9576   -2.1047   14.5866 O   0  0  0  0  0  0
   -2.5936   -1.9570   14.7428 C   0  0  0  0  0  0
   -1.7997   -2.7980   15.5618 C   0  0  0  0  0  0
   -0.4185   -2.5679   15.6979 C   0  0  0  0  0  0
    0.2041   -1.4959   15.0311 C   0  0  0  0  0  0
    1.5765   -1.3075   15.2748 N   0  0  0  0  0  0
    2.5242   -0.4237   14.7299 C   0  0  0  0  0  0
    2.2055    0.3782   13.7494 N   0  0  0  0  0  0
    3.1360    1.2605   13.2422 C   0  0  0  0  0  0
    4.4392    1.2854   13.6831 C   0  0  0  0  0  0
    4.7665    0.4739   14.7198 N   0  0  0  0  0  0
    5.9121    0.3734   15.4818 C   0  0  0  0  0  0
    5.6009   -0.4952   16.4937 C   0  0  0  0  0  0
    4.3546   -1.0613   16.3235 N   0  0  0  0  0  0
    3.8276   -0.4162   15.2903 C   0  0  0  0  0  0
    2.6627    2.2314   12.2246 C   0  0  0  0  0  0
    3.5390    2.7171   11.2183 C   0  0  0  0  0  0
    3.0994    3.6050   10.2151 C   0  0  0  0  0  0
    1.7647    4.0564   10.2017 C   0  0  0  0  0  0
    1.1071    4.8974    9.3173 N   0  0  0  0  0  0
   -0.1130    4.9465    9.8452 C   0  0  0  0  0  0
   -0.3104    4.2228   10.9601 N   0  0  0  0  0  0
    0.8969    3.6037   11.2396 C   0  0  0  0  0  0
    1.3320    2.7132   12.2371 C   0  0  0  0  0  0
   -0.5886   -0.6689   14.2020 C   0  0  0  0  0  0
   -1.9770   -0.8943   14.0439 C   0  0  0  0  0  0
   -2.7835   -0.1026   13.2514 O   0  0  0  0  0  0
   -2.1608    0.7823   12.3291 C   0  0  0  0  0  0
   -5.6824   -3.0753   15.1518 H   0  0  0  0  0  0
   -4.4713   -2.9450   16.4226 H   0  0  0  0  0  0
   -4.2579   -4.1050   15.0875 H   0  0  0  0  0  0
   -2.2244   -3.6245   16.1127 H   0  0  0  0  0  0
    0.1589   -3.2145   16.3440 H   0  0  0  0  0  0
    1.9687   -1.9061   15.9904 H   0  0  0  0  0  0
    5.1958    1.9809   13.3379 H   0  0  0  0  0  0
    6.7721    0.9927   15.2757 H   0  0  0  0  0  0
    6.1246   -0.7426   17.3918 H   0  0  0  0  0  0
    4.5617    2.3716   11.1817 H   0  0  0  0  0  0
    3.7775    3.9357    9.4438 H   0  0  0  0  0  0
   -0.9004    5.5366    9.3985 H   0  0  0  0  0  0
   -1.1749    4.1752   11.4775 H   0  0  0  0  0  0
    0.6476    2.3892   13.0062 H   0  0  0  0  0  0
   -0.1503    0.1700   13.6968 H   0  0  0  0  0  0
   -2.9162    1.1981   11.6650 H   0  0  0  0  0  0
   -1.6786    1.6144   12.8419 H   0  0  0  0  0  0
   -1.4281    0.2674   11.7052 H   0  0  0  0  0  0
  1  2  1  0  0  0
  1 30  1  0  0  0
  1 31  1  0  0  0
  1 32  1  0  0  0
  2  3  1  0  0  0
  3  4  2  0  0  0
  3 27  1  0  0  0
  4  5  1  0  0  0
  4 33  1  0  0  0
  5  6  2  0  0  0
  5 34  1  0  0  0
  6  7  1  0  0  0
  6 26  1  0  0  0
  7  8  1  0  0  0
  7 35  1  0  0  0
  8  9  2  0  0  0
  8 16  1  0  0  0
  9 10  1  0  0  0
 10 11  2  0  0  0
 10 17  1  0  0  0
 11 12  1  0  0  0
 11 36  1  0  0  0
 12 13  1  0  0  0
 12 16  1  0  0  0
 13 14  2  0  0  0
 13 37  1  0  0  0
 14 15  1  0  0  0
 14 38  1  0  0  0
 15 16  2  0  0  0
 17 18  2  0  0  0
 17 25  1  0  0  0
 18 19  1  0  0  0
 18 39  1  0  0  0
 19 20  2  0  0  0
 19 40  1  0  0  0
 20 21  1  0  0  0
 20 24  1  0  0  0
 21 22  2  0  0  0
 22 23  1  0  0  0
 22 41  1  0  0  0
 23 24  1  0  0  0
 23 42  1  0  0  0
 24 25  2  0  0  0
 25 43  1  0  0  0
 26 27  2  0  0  0
 26 44  1  0  0  0
 27 28  1  0  0  0
 28 29  1  0  0  0
 29 45  1  0  0  0
 29 46  1  0  0  0
 29 47  1  0  0  0
M  END
> <s_m_entry_id>
1006

> <IC50[nM]>
6.3

> <s_m_Source_Path>
/projects/mai/users/kmzp800_harry/pmx_colab/docking_jobs/syk

> <s_m_Source_File>
tnks2_lig.sdf

> <i_m_Source_File_Index>
19

> <s_m_job_name>
glide-dock_SP_tnks2_core_const

> <r_i_docking_score>
-7.20377906588699

> <r_i_glide_gscore>
-7.20377906588699

> <r_i_glide_emodel>
-50.1248971885226

$$$$
CHEMBL3265025
                    3D
 Schrodinger Suite 2021-4.
 50 54  0  0  1  0            999 V2000
   -4.5694   -3.2509   14.9429 C   0  0  0  0  0  0
   -3.9284   -2.1080   14.3765 O   0  0  0  0  0  0
   -2.5707   -1.9545   14.5872 C   0  0  0  0  0  0
   -1.7870   -2.8567   15.3452 C   0  0  0  0  0  0
   -0.4121   -2.6273   15.5349 C   0  0  0  0  0  0
    0.2102   -1.4953   14.9747 C   0  0  0  0  0  0
    1.5746   -1.3156   15.2542 N   0  0  0  0  0  0
    2.5263   -0.4277   14.7287 C   0  0  0  0  0  0
    2.2018    0.3835   13.7576 N   0  0  0  0  0  0
    3.1297    1.2651   13.2488 C   0  0  0  0  0  0
    4.4303    1.2912   13.6895 C   0  0  0  0  0  0
    4.7651    0.4746   14.7188 N   0  0  0  0  0  0
    5.9109    0.3684   15.4766 C   0  0  0  0  0  0
    5.6011   -0.4942   16.4962 C   0  0  0  0  0  0
    4.3614   -1.0639   16.3251 N   0  0  0  0  0  0
    3.8329   -0.4215   15.2921 C   0  0  0  0  0  0
    2.6577    2.2366   12.2293 C   0  0  0  0  0  0
    3.5474    2.7200   11.2365 C   0  0  0  0  0  0
    3.1190    3.6058   10.2320 C   0  0  0  0  0  0
    1.7821    4.0418   10.2199 C   0  0  0  0  0  0
    1.3068    4.8578    9.1725 N   0  0  0  0  0  0
    0.0746    5.3797    9.1797 C   0  0  0  0  0  0
   -0.3883    5.9901    8.2172 O   0  0  0  0  0  0
   -0.7463    5.2110   10.4712 C   0  0  0  0  0  0
   -0.4387    4.0020   11.1902 O   0  0  0  0  0  0
    0.8824    3.6039   11.2193 C   0  0  0  0  0  0
    1.3227    2.7138   12.2161 C   0  0  0  0  0  0
   -0.5764   -0.5961   14.2174 C   0  0  0  0  0  0
   -1.9581   -0.8140   14.0157 C   0  0  0  0  0  0
   -2.7704    0.0359   13.2880 O   0  0  0  0  0  0
   -2.1666    1.0742   12.5313 C   0  0  0  0  0  0
   -5.6246   -3.2445   14.6884 H   0  0  0  0  0  0
   -4.5051   -3.2535   16.0325 H   0  0  0  0  0  0
   -4.1546   -4.1763   14.5486 H   0  0  0  0  0  0
   -2.2138   -3.7382   15.8058 H   0  0  0  0  0  0
    0.1629   -3.3256   16.1327 H   0  0  0  0  0  0
    1.9644   -1.9843   15.9113 H   0  0  0  0  0  0
    5.1805    1.9919   13.3456 H   0  0  0  0  0  0
    6.7752    0.9780   15.2647 H   0  0  0  0  0  0
    6.1221   -0.7536   17.3927 H   0  0  0  0  0  0
    4.5695    2.3749   11.2123 H   0  0  0  0  0  0
    3.8100    3.9269    9.4703 H   0  0  0  0  0  0
    1.9031    5.0272    8.3798 H   0  0  0  0  0  0
   -1.8079    5.2268   10.2334 H   0  0  0  0  0  0
   -0.5420    6.0658   11.1145 H   0  0  0  0  0  0
    0.6209    2.3795   12.9672 H   0  0  0  0  0  0
   -0.1398    0.2917   13.8098 H   0  0  0  0  0  0
   -2.9257    1.5782   11.9358 H   0  0  0  0  0  0
   -1.7106    1.8256   13.1754 H   0  0  0  0  0  0
   -1.4236    0.6795   11.8322 H   0  0  0  0  0  0
  1  2  1  0  0  0
  1 32  1  0  0  0
  1 33  1  0  0  0
  1 34  1  0  0  0
  2  3  1  0  0  0
  3  4  2  0  0  0
  3 29  1  0  0  0
  4  5  1  0  0  0
  4 35  1  0  0  0
  5  6  2  0  0  0
  5 36  1  0  0  0
  6  7  1  0  0  0
  6 28  1  0  0  0
  7  8  1  0  0  0
  7 37  1  0  0  0
  8  9  2  0  0  0
  8 16  1  0  0  0
  9 10  1  0  0  0
 10 11  2  0  0  0
 10 17  1  0  0  0
 11 12  1  0  0  0
 11 38  1  0  0  0
 12 13  1  0  0  0
 12 16  1  0  0  0
 13 14  2  0  0  0
 13 39  1  0  0  0
 14 15  1  0  0  0
 14 40  1  0  0  0
 15 16  2  0  0  0
 17 18  2  0  0  0
 17 27  1  0  0  0
 18 19  1  0  0  0
 18 41  1  0  0  0
 19 20  2  0  0  0
 19 42  1  0  0  0
 20 21  1  0  0  0
 20 26  1  0  0  0
 21 22  1  0  0  0
 21 43  1  0  0  0
 22 23  2  0  0  0
 22 24  1  0  0  0
 24 25  1  0  0  0
 24 44  1  0  0  0
 24 45  1  0  0  0
 25 26  1  0  0  0
 26 27  2  0  0  0
 27 46  1  0  0  0
 28 29  2  0  0  0
 28 47  1  0  0  0
 29 30  1  0  0  0
 30 31  1  0  0  0
 31 48  1  0  0  0
 31 49  1  0  0  0
 31 50  1  0  0  0
M  END
> <s_m_entry_id>
1007

> <IC50[nM]>
33.4

> <s_m_Source_Path>
/projects/mai/users/kmzp800_harry/pmx_colab/docking_jobs/syk

> <s_m_Source_File>
tnks2_lig.sdf

> <i_m_Source_File_Index>
20

> <s_m_job_name>
glide-dock_SP_tnks2_core_const

> <r_i_docking_score>
-7.23445234850961

> <r_i_glide_gscore>
-7.23445234850961

> <r_i_glide_emodel>
-52.5689777648871

$$$$
CHEMBL3265008
                    3D
 Schrodinger Suite 2021-4.
 48 51  0  0  1  0            999 V2000
   -4.5626   -3.1539   15.7822 C   0  0  0  0  0  0
   -3.9560   -2.2068   14.9127 O   0  0  0  0  0  0
   -2.5855   -2.0574   14.9732 C   0  0  0  0  0  0
   -1.7420   -2.8635   15.7752 C   0  0  0  0  0  0
   -0.3580   -2.6250   15.8189 C   0  0  0  0  0  0
    0.2232   -1.5792   15.0771 C   0  0  0  0  0  0
    1.6046   -1.3773   15.2577 N   0  0  0  0  0  0
    2.5218   -0.4494   14.7300 C   0  0  0  0  0  0
    2.1854    0.3525   13.7572 N   0  0  0  0  0  0
    3.0929    1.2696   13.2642 C   0  0  0  0  0  0
    4.3967    1.3232   13.7235 C   0  0  0  0  0  0
    4.7496    0.4827   14.7281 N   0  0  0  0  0  0
    5.8999    0.3817   15.4841 C   0  0  0  0  0  0
    5.5991   -0.4952   16.4936 C   0  0  0  0  0  0
    4.3599   -1.0690   16.3227 N   0  0  0  0  0  0
    3.8245   -0.4226   15.2952 C   0  0  0  0  0  0
    2.5136    2.3608   12.4328 C   0  0  0  0  0  0
    1.1263    2.4192   12.1563 C   0  0  0  0  0  0
    0.5661    3.4752   11.4167 C   0  0  0  0  0  0
    1.3718    4.5353   10.9718 C   0  0  0  0  0  0
    0.7867    5.5428   10.2765 F   0  0  0  0  0  0
    2.7561    4.5409   11.2771 C   0  0  0  0  0  0
    3.3064    3.4385   11.9684 C   0  0  0  0  0  0
    3.6587    5.6954   10.9307 C   0  0  0  0  0  0
    4.8822    5.6039   11.0127 O   0  0  0  0  0  0
    3.0699    6.8452   10.6179 N   0  0  0  0  0  0
   -0.6166   -0.7977   14.2502 C   0  0  0  0  0  0
   -2.0154   -1.0294   14.1909 C   0  0  0  0  0  0
   -2.8824   -0.2806   13.4183 O   0  0  0  0  0  0
   -2.3326    0.6638   12.5106 C   0  0  0  0  0  0
   -5.6449   -3.1202   15.6542 H   0  0  0  0  0  0
   -4.2351   -4.1701   15.5551 H   0  0  0  0  0  0
   -4.3487   -2.9298   16.8287 H   0  0  0  0  0  0
   -2.1306   -3.6620   16.3890 H   0  0  0  0  0  0
    0.2564   -3.2401   16.4622 H   0  0  0  0  0  0
    2.0210   -1.9640   15.9695 H   0  0  0  0  0  0
    5.1494    2.0408   13.4227 H   0  0  0  0  0  0
    6.7528    1.0125   15.2829 H   0  0  0  0  0  0
    6.1289   -0.7432   17.3872 H   0  0  0  0  0  0
    0.4637    1.6398   12.4889 H   0  0  0  0  0  0
   -0.4920    3.4803   11.2014 H   0  0  0  0  0  0
    4.3625    3.4636   12.1791 H   0  0  0  0  0  0
    3.6169    7.7029   10.5960 H   0  0  0  0  0  0
    2.0609    6.8909   10.5827 H   0  0  0  0  0  0
   -0.1975    0.0041   13.6780 H   0  0  0  0  0  0
   -3.1314    1.0864   11.9017 H   0  0  0  0  0  0
   -1.8544    1.4872   13.0424 H   0  0  0  0  0  0
   -1.6155    0.2007   11.8304 H   0  0  0  0  0  0
  1  2  1  0  0  0
  1 31  1  0  0  0
  1 32  1  0  0  0
  1 33  1  0  0  0
  2  3  1  0  0  0
  3  4  2  0  0  0
  3 28  1  0  0  0
  4  5  1  0  0  0
  4 34  1  0  0  0
  5  6  2  0  0  0
  5 35  1  0  0  0
  6  7  1  0  0  0
  6 27  1  0  0  0
  7  8  1  0  0  0
  7 36  1  0  0  0
  8  9  2  0  0  0
  8 16  1  0  0  0
  9 10  1  0  0  0
 10 11  2  0  0  0
 10 17  1  0  0  0
 11 12  1  0  0  0
 11 37  1  0  0  0
 12 13  1  0  0  0
 12 16  1  0  0  0
 13 14  2  0  0  0
 13 38  1  0  0  0
 14 15  1  0  0  0
 14 39  1  0  0  0
 15 16  2  0  0  0
 17 18  2  0  0  0
 17 23  1  0  0  0
 18 19  1  0  0  0
 18 40  1  0  0  0
 19 20  2  0  0  0
 19 41  1  0  0  0
 20 21  1  0  0  0
 20 22  1  0  0  0
 22 23  2  0  0  0
 22 24  1  0  0  0
 23 42  1  0  0  0
 24 25  2  0  0  0
 24 26  1  0  0  0
 26 43  1  0  0  0
 26 44  1  0  0  0
 27 28  2  0  0  0
 27 45  1  0  0  0
 28 29  1  0  0  0
 29 30  1  0  0  0
 30 46  1  0  0  0
 30 47  1  0  0  0
 30 48  1  0  0  0
M  END
> <s_m_entry_id>
1008

> <IC50[nM]>
67.3

> <s_m_Source_Path>
/projects/mai/users/kmzp800_harry/pmx_colab/docking_jobs/syk

> <s_m_Source_File>
tnks2_lig.sdf

> <i_m_Source_File_Index>
21

> <s_m_job_name>
glide-dock_SP_tnks2_core_const

> <r_i_docking_score>
-7.6749476135613

> <r_i_glide_gscore>
-7.6749476135613

> <r_i_glide_emodel>
-55.1484946161656

$$$$
CHEMBL3265019
                    3D
 Schrodinger Suite 2021-4.
 46 50  0  0  1  0            999 V2000
   -4.5014   -3.3895   14.5868 C   0  0  0  0  0  0
   -3.8662   -2.2152   14.0937 O   0  0  0  0  0  0
   -2.5232   -2.0360   14.3624 C   0  0  0  0  0  0
   -1.7268   -2.9827   15.0525 C   0  0  0  0  0  0
   -0.3703   -2.7268   15.3171 C   0  0  0  0  0  0
    0.2198   -1.5186   14.9048 C   0  0  0  0  0  0
    1.5687   -1.3154   15.2447 N   0  0  0  0  0  0
    2.5255   -0.4233   14.7305 C   0  0  0  0  0  0
    2.2052    0.3853   13.7540 N   0  0  0  0  0  0
    3.1299    1.2640   13.2375 C   0  0  0  0  0  0
    4.4371    1.2877   13.6794 C   0  0  0  0  0  0
    4.7690    0.4786   14.7194 N   0  0  0  0  0  0
    5.9165    0.3761   15.4857 C   0  0  0  0  0  0
    5.6089   -0.5024   16.4898 C   0  0  0  0  0  0
    4.3612   -1.0564   16.3234 N   0  0  0  0  0  0
    3.8293   -0.4127   15.2877 C   0  0  0  0  0  0
    2.6621    2.2360   12.2125 C   0  0  0  0  0  0
    3.5444    2.7158   11.2041 C   0  0  0  0  0  0
    3.1173    3.6059   10.1941 C   0  0  0  0  0  0
    1.7838    4.0654   10.1768 C   0  0  0  0  0  0
    1.1064    4.9168    9.3181 N   0  0  0  0  0  0
   -0.1195    5.0242    9.7397 N   0  0  0  0  0  0
   -0.2533    4.2537   10.8518 N   0  0  0  0  0  0
    0.9161    3.6049   11.1914 C   0  0  0  0  0  0
    1.3288    2.7145   12.2003 C   0  0  0  0  0  0
   -0.5764   -0.5730   14.2185 C   0  0  0  0  0  0
   -1.9411   -0.8223   13.9376 C   0  0  0  0  0  0
   -2.7684    0.0716   13.2855 O   0  0  0  0  0  0
   -2.1628    1.1842   12.6352 C   0  0  0  0  0  0
   -5.5638   -3.3599   14.3371 H   0  0  0  0  0  0
   -4.4257   -3.4597   15.6771 H   0  0  0  0  0  0
   -4.0740   -4.2880   14.1300 H   0  0  0  0  0  0
   -2.1354   -3.9216   15.3911 H   0  0  0  0  0  0
    0.2118   -3.4610   15.8567 H   0  0  0  0  0  0
    1.9578   -1.9895   15.8962 H   0  0  0  0  0  0
    5.2018    1.9681   13.3212 H   0  0  0  0  0  0
    6.7832    0.9816   15.2769 H   0  0  0  0  0  0
    6.1084   -0.7821   17.3843 H   0  0  0  0  0  0
    4.5708    2.3816   11.1853 H   0  0  0  0  0  0
    3.8170    3.9445    9.4442 H   0  0  0  0  0  0
   -1.1384    4.2014   11.3345 H   0  0  0  0  0  0
    0.6252    2.4015   12.9530 H   0  0  0  0  0  0
   -0.1546    0.3750   13.9441 H   0  0  0  0  0  0
   -2.9288    1.7412   12.0895 H   0  0  0  0  0  0
   -1.7139    1.8685   13.3614 H   0  0  0  0  0  0
   -1.4105    0.8682   11.9042 H   0  0  0  0  0  0
  1  2  1  0  0  0
  1 30  1  0  0  0
  1 31  1  0  0  0
  1 32  1  0  0  0
  2  3  1  0  0  0
  3  4  2  0  0  0
  3 27  1  0  0  0
  4  5  1  0  0  0
  4 33  1  0  0  0
  5  6  2  0  0  0
  5 34  1  0  0  0
  6  7  1  0  0  0
  6 26  1  0  0  0
  7  8  1  0  0  0
  7 35  1  0  0  0
  8  9  2  0  0  0
  8 16  1  0  0  0
  9 10  1  0  0  0
 10 11  2  0  0  0
 10 17  1  0  0  0
 11 12  1  0  0  0
 11 36  1  0  0  0
 12 13  1  0  0  0
 12 16  1  0  0  0
 13 14  2  0  0  0
 13 37  1  0  0  0
 14 15  1  0  0  0
 14 38  1  0  0  0
 15 16  2  0  0  0
 17 18  2  0  0  0
 17 25  1  0  0  0
 18 19  1  0  0  0
 18 39  1  0  0  0
 19 20  2  0  0  0
 19 40  1  0  0  0
 20 21  1  0  0  0
 20 24  1  0  0  0
 21 22  2  0  0  0
 22 23  1  0  0  0
 23 24  1  0  0  0
 23 41  1  0  0  0
 24 25  2  0  0  0
 25 42  1  0  0  0
 26 27  2  0  0  0
 26 43  1  0  0  0
 27 28  1  0  0  0
 28 29  1  0  0  0
 29 44  1  0  0  0
 29 45  1  0  0  0
 29 46  1  0  0  0
M  END
> <s_m_entry_id>
1009

> <IC50[nM]>
12.6

> <s_m_Source_Path>
/projects/mai/users/kmzp800_harry/pmx_colab/docking_jobs/syk

> <s_m_Source_File>
tnks2_lig.sdf

> <i_m_Source_File_Index>
22

> <s_m_job_name>
glide-dock_SP_tnks2_core_const

> <r_i_docking_score>
-7.13128600299106

> <r_i_glide_gscore>
-7.13128600299106

> <r_i_glide_emodel>
-49.1612712159878

$$$$
CHEMBL3265013
                    3D
 Schrodinger Suite 2021-4.
 51 54  0  0  1  0            999 V2000
   -4.4552   -3.5142   14.7913 C   0  0  0  0  0  0
   -3.8812   -2.3056   14.3087 O   0  0  0  0  0  0
   -2.5340   -2.0960   14.5449 C   0  0  0  0  0  0
   -1.7193   -2.9897   15.2852 C   0  0  0  0  0  0
   -0.3559   -2.7093   15.4950 C   0  0  0  0  0  0
    0.2293   -1.5366   14.9790 C   0  0  0  0  0  0
    1.5890   -1.3200   15.2593 N   0  0  0  0  0  0
    2.5250   -0.4243   14.7344 C   0  0  0  0  0  0
    2.1886    0.4001   13.7718 N   0  0  0  0  0  0
    3.1215    1.2764   13.2444 C   0  0  0  0  0  0
    4.4281    1.2885   13.6867 C   0  0  0  0  0  0
    4.7593    0.4790   14.7240 N   0  0  0  0  0  0
    5.8950    0.3908   15.5140 C   0  0  0  0  0  0
    5.5903   -0.4956   16.5118 C   0  0  0  0  0  0
    4.3516   -1.0598   16.3270 N   0  0  0  0  0  0
    3.8249   -0.4165   15.2952 C   0  0  0  0  0  0
    2.6407    2.2643   12.2373 C   0  0  0  0  0  0
    3.5237    2.7997   11.2654 C   0  0  0  0  0  0
    3.0887    3.6778   10.2587 C   0  0  0  0  0  0
    1.7308    4.0680   10.1953 C   0  0  0  0  0  0
    1.2877    4.9535    9.0691 C   0  0  0  0  0  0
    0.3032    4.6768    8.3848 O   0  0  0  0  0  0
    2.0063    6.0634    8.8804 N   0  0  0  0  0  0
    0.8302    3.5732   11.1724 C   0  0  0  0  0  0
   -0.6311    3.9962   11.1727 C   0  0  0  0  0  0
    1.2946    2.6941   12.1864 C   0  0  0  0  0  0
   -0.5862   -0.6567   14.2358 C   0  0  0  0  0  0
   -1.9584   -0.9167   14.0080 C   0  0  0  0  0  0
   -2.7905   -0.0662   13.3073 O   0  0  0  0  0  0
   -2.2051    1.0562   12.6602 C   0  0  0  0  0  0
   -5.5052   -3.5441   14.5109 H   0  0  0  0  0  0
   -3.9690   -4.3888   14.3545 H   0  0  0  0  0  0
   -4.4017   -3.5749   15.8798 H   0  0  0  0  0  0
   -2.1147   -3.8937   15.7256 H   0  0  0  0  0  0
    0.2349   -3.3974   16.0744 H   0  0  0  0  0  0
    2.0083   -1.9776   15.9051 H   0  0  0  0  0  0
    5.1971    1.9831   13.3561 H   0  0  0  0  0  0
    6.7634    1.0004   15.3175 H   0  0  0  0  0  0
    6.1171   -0.7554   17.4022 H   0  0  0  0  0  0
    4.5604    2.5027   11.2724 H   0  0  0  0  0  0
    3.8036    4.0284    9.5195 H   0  0  0  0  0  0
    1.7374    6.7139    8.1584 H   0  0  0  0  0  0
    2.7571    6.2859    9.5157 H   0  0  0  0  0  0
   -1.1256    3.7535   12.1140 H   0  0  0  0  0  0
   -0.7212    5.0812   11.0399 H   0  0  0  0  0  0
   -1.1793    3.5059   10.3605 H   0  0  0  0  0  0
    0.5898    2.3089   12.9028 H   0  0  0  0  0  0
   -0.1708    0.2561   13.8559 H   0  0  0  0  0  0
   -2.9642    1.5927   12.0918 H   0  0  0  0  0  0
   -1.7893    1.7547   13.3858 H   0  0  0  0  0  0
   -1.4236    0.7593   11.9599 H   0  0  0  0  0  0
  1  2  1  0  0  0
  1 31  1  0  0  0
  1 32  1  0  0  0
  1 33  1  0  0  0
  2  3  1  0  0  0
  3  4  2  0  0  0
  3 28  1  0  0  0
  4  5  1  0  0  0
  4 34  1  0  0  0
  5  6  2  0  0  0
  5 35  1  0  0  0
  6  7  1  0  0  0
  6 27  1  0  0  0
  7  8  1  0  0  0
  7 36  1  0  0  0
  8  9  2  0  0  0
  8 16  1  0  0  0
  9 10  1  0  0  0
 10 11  2  0  0  0
 10 17  1  0  0  0
 11 12  1  0  0  0
 11 37  1  0  0  0
 12 13  1  0  0  0
 12 16  1  0  0  0
 13 14  2  0  0  0
 13 38  1  0  0  0
 14 15  1  0  0  0
 14 39  1  0  0  0
 15 16  2  0  0  0
 17 18  2  0  0  0
 17 26  1  0  0  0
 18 19  1  0  0  0
 18 40  1  0  0  0
 19 20  2  0  0  0
 19 41  1  0  0  0
 20 21  1  0  0  0
 20 24  1  0  0  0
 21 22  2  0  0  0
 21 23  1  0  0  0
 23 42  1  0  0  0
 23 43  1  0  0  0
 24 25  1  0  0  0
 24 26  2  0  0  0
 25 44  1  0  0  0
 25 45  1  0  0  0
 25 46  1  0  0  0
 26 47  1  0  0  0
 27 28  2  0  0  0
 27 48  1  0  0  0
 28 29  1  0  0  0
 29 30  1  0  0  0
 30 49  1  0  0  0
 30 50  1  0  0  0
 30 51  1  0  0  0
M  END
> <s_m_entry_id>
1010

> <IC50[nM]>
64.1

> <s_m_Source_Path>
/projects/mai/users/kmzp800_harry/pmx_colab/docking_jobs/syk

> <s_m_Source_File>
tnks2_lig.sdf

> <i_m_Source_File_Index>
23

> <s_m_job_name>
glide-dock_SP_tnks2_core_const

> <r_i_docking_score>
-7.35175798646463

> <r_i_glide_gscore>
-7.35175798646463

> <r_i_glide_emodel>
-50.1652528164008

$$$$
CHEMBL3265015
                    3D
 Schrodinger Suite 2021-4.
 51 54  0  0  1  0            999 V2000
   -4.5531   -3.3216   15.2010 C   0  0  0  0  0  0
   -3.9145   -2.2768   14.4728 O   0  0  0  0  0  0
   -2.5599   -2.0861   14.6607 C   0  0  0  0  0  0
   -1.7443   -2.9497   15.4292 C   0  0  0  0  0  0
   -0.3760   -2.6781   15.6035 C   0  0  0  0  0  0
    0.2144   -1.5464   15.0022 C   0  0  0  0  0  0
    1.5786   -1.3228   15.2712 N   0  0  0  0  0  0
    2.5243   -0.4374   14.7282 C   0  0  0  0  0  0
    2.1975    0.3630   13.7447 N   0  0  0  0  0  0
    3.1042    1.2786   13.2395 C   0  0  0  0  0  0
    4.4050    1.3236   13.7052 C   0  0  0  0  0  0
    4.7531    0.4895   14.7188 N   0  0  0  0  0  0
    5.9063    0.3760   15.4728 C   0  0  0  0  0  0
    5.6054   -0.5022   16.4843 C   0  0  0  0  0  0
    4.3520   -1.0434   16.3326 N   0  0  0  0  0  0
    3.8238   -0.4138   15.2874 C   0  0  0  0  0  0
    2.5465    2.2344   12.2226 C   0  0  0  0  0  0
    1.1780    2.6089   12.3195 C   0  0  0  0  0  0
    0.5455    3.4206   11.3589 C   0  0  0  0  0  0
    1.2727    3.9079   10.2534 C   0  0  0  0  0  0
    2.6489    3.6309   10.1841 C   0  0  0  0  0  0
    3.2813    2.8041   11.1381 C   0  0  0  0  0  0
    4.7560    2.5462   10.9057 C   0  0  0  0  0  0
    0.6199    4.7179    9.1685 C   0  0  0  0  0  0
    1.1771    5.7003    8.6833 O   0  0  0  0  0  0
   -0.5512    4.2676    8.7104 N   0  0  0  0  0  0
   -0.5977   -0.6990   14.2158 C   0  0  0  0  0  0
   -1.9818   -0.9581   14.0403 C   0  0  0  0  0  0
   -2.8198   -0.1411   13.3104 O   0  0  0  0  0  0
   -2.2360    0.8712   12.5046 C   0  0  0  0  0  0
   -5.6193   -3.3186   14.9768 H   0  0  0  0  0  0
   -4.1642   -4.2969   14.9060 H   0  0  0  0  0  0
   -4.4355   -3.1951   16.2796 H   0  0  0  0  0  0
   -2.1512   -3.8201   15.9249 H   0  0  0  0  0  0
    0.2164   -3.3389   16.2221 H   0  0  0  0  0  0
    1.9775   -1.9195   15.9840 H   0  0  0  0  0  0
    5.1464    2.0453   13.3984 H   0  0  0  0  0  0
    6.7674    0.9989   15.2700 H   0  0  0  0  0  0
    6.1348   -0.7518   17.3786 H   0  0  0  0  0  0
    0.5815    2.2466   13.1430 H   0  0  0  0  0  0
   -0.5040    3.6475   11.4643 H   0  0  0  0  0  0
    3.2174    4.0368    9.3576 H   0  0  0  0  0  0
    5.3521    3.1900   11.5542 H   0  0  0  0  0  0
    5.0316    1.5042   11.0632 H   0  0  0  0  0  0
    5.0121    2.8036    9.8812 H   0  0  0  0  0  0
   -1.0160    4.7590    7.9586 H   0  0  0  0  0  0
   -0.9652    3.4405    9.1188 H   0  0  0  0  0  0
   -0.1826    0.1860   13.7711 H   0  0  0  0  0  0
   -3.0056    1.3223   11.8791 H   0  0  0  0  0  0
   -1.8034    1.6667   13.1127 H   0  0  0  0  0  0
   -1.4792    0.4630   11.8285 H   0  0  0  0  0  0
  1  2  1  0  0  0
  1 31  1  0  0  0
  1 32  1  0  0  0
  1 33  1  0  0  0
  2  3  1  0  0  0
  3  4  2  0  0  0
  3 28  1  0  0  0
  4  5  1  0  0  0
  4 34  1  0  0  0
  5  6  2  0  0  0
  5 35  1  0  0  0
  6  7  1  0  0  0
  6 27  1  0  0  0
  7  8  1  0  0  0
  7 36  1  0  0  0
  8  9  2  0  0  0
  8 16  1  0  0  0
  9 10  1  0  0  0
 10 11  2  0  0  0
 10 17  1  0  0  0
 11 12  1  0  0  0
 11 37  1  0  0  0
 12 13  1  0  0  0
 12 16  1  0  0  0
 13 14  2  0  0  0
 13 38  1  0  0  0
 14 15  1  0  0  0
 14 39  1  0  0  0
 15 16  2  0  0  0
 17 18  2  0  0  0
 17 22  1  0  0  0
 18 19  1  0  0  0
 18 40  1  0  0  0
 19 20  2  0  0  0
 19 41  1  0  0  0
 20 21  1  0  0  0
 20 24  1  0  0  0
 21 22  2  0  0  0
 21 42  1  0  0  0
 22 23  1  0  0  0
 23 43  1  0  0  0
 23 44  1  0  0  0
 23 45  1  0  0  0
 24 25  2  0  0  0
 24 26  1  0  0  0
 26 46  1  0  0  0
 26 47  1  0  0  0
 27 28  2  0  0  0
 27 48  1  0  0  0
 28 29  1  0  0  0
 29 30  1  0  0  0
 30 49  1  0  0  0
 30 50  1  0  0  0
 30 51  1  0  0  0
M  END
> <s_m_entry_id>
1011

> <IC50[nM]>
113

> <s_m_Source_Path>
/projects/mai/users/kmzp800_harry/pmx_colab/docking_jobs/syk

> <s_m_Source_File>
tnks2_lig.sdf

> <i_m_Source_File_Index>
24

> <s_m_job_name>
glide-dock_SP_tnks2_core_const

> <r_i_docking_score>
-7.63728664680017

> <r_i_glide_gscore>
-7.63728664680017

> <r_i_glide_emodel>
-49.7460024738058

$$$$
CHEMBL3264996
                    3D
 Schrodinger Suite 2021-4.
 64 68  0  0  1  0            999 V2000
   -8.7068    6.3359   12.1295 C   0  0  0  0  0  0
   -7.3590    5.9119   12.0237 O   0  0  0  0  0  0
   -6.4394    6.3932   12.8809 C   0  0  0  0  0  0
   -6.6943    7.2057   13.7715 O   0  0  0  0  0  0
   -5.0821    5.8219   12.6558 C   0  0  0  0  0  0
   -4.7707    5.0697   11.4996 C   0  0  0  0  0  0
   -3.4718    4.5655   11.3045 C   0  0  0  0  0  0
   -2.4486    4.8266   12.2470 C   0  0  0  0  0  0
   -1.1118    4.3584   12.1027 N   0  0  0  0  0  0
   -0.4698    4.0305   10.9671 C   0  0  0  0  0  0
   -0.9527    4.1156    9.8401 O   0  0  0  0  0  0
    0.9601    3.6058   11.1262 C   0  0  0  0  0  0
    1.9042    4.0370   10.1719 C   0  0  0  0  0  0
    3.2346    3.6025   10.2495 C   0  0  0  0  0  0
    3.6186    2.7120   11.2646 C   0  0  0  0  0  0
    2.6916    2.2316   12.2238 C   0  0  0  0  0  0
    1.3617    2.7176   12.1568 C   0  0  0  0  0  0
    3.1325    1.2532   13.2504 C   0  0  0  0  0  0
    4.4342    1.2785   13.6970 C   0  0  0  0  0  0
    4.7613    0.4641   14.7260 N   0  0  0  0  0  0
    5.9051    0.3656   15.4879 C   0  0  0  0  0  0
    5.5899   -0.4968   16.5034 C   0  0  0  0  0  0
    4.3422   -1.0579   16.3383 N   0  0  0  0  0  0
    3.8203   -0.4224   15.2968 C   0  0  0  0  0  0
    2.5194   -0.4356   14.7290 C   0  0  0  0  0  0
    1.5584   -1.3048   15.2756 N   0  0  0  0  0  0
    0.1973   -1.5039   14.9792 C   0  0  0  0  0  0
   -0.4123   -2.6515   15.5229 C   0  0  0  0  0  0
   -1.7805   -2.9064   15.3163 C   0  0  0  0  0  0
   -2.5749   -2.0103   14.5586 C   0  0  0  0  0  0
   -3.9256   -2.1881   14.3290 O   0  0  0  0  0  0
   -4.5393   -3.3749   14.8196 C   0  0  0  0  0  0
   -1.9757   -0.8595   14.0003 C   0  0  0  0  0  0
   -2.7932   -0.0138   13.2765 O   0  0  0  0  0  0
   -2.1987    1.0613   12.5610 C   0  0  0  0  0  0
   -0.5978   -0.6146   14.2176 C   0  0  0  0  0  0
    2.2001    0.3646   13.7570 N   0  0  0  0  0  0
   -2.7646    5.5569   13.4099 C   0  0  0  0  0  0
   -4.0734    6.0321   13.6203 C   0  0  0  0  0  0
   -9.3113    5.8387   11.3710 H   0  0  0  0  0  0
   -8.7887    7.4143   11.9783 H   0  0  0  0  0  0
   -9.1177    6.0879   13.1093 H   0  0  0  0  0  0
   -5.5163    4.8715   10.7435 H   0  0  0  0  0  0
   -3.2837    3.9830   10.4156 H   0  0  0  0  0  0
   -0.5445    4.3689   12.9355 H   0  0  0  0  0  0
    1.6076    4.7016    9.3710 H   0  0  0  0  0  0
    3.9576    3.9313    9.5167 H   0  0  0  0  0  0
    4.6397    2.3650   11.2678 H   0  0  0  0  0  0
    0.6367    2.3644   12.8751 H   0  0  0  0  0  0
    5.1959    1.9728   13.3598 H   0  0  0  0  0  0
    6.7651    0.9838   15.2800 H   0  0  0  0  0  0
    6.1113   -0.7452   17.4034 H   0  0  0  0  0  0
    1.9407   -1.9198   15.9821 H   0  0  0  0  0  0
    0.1653   -3.3429   16.1222 H   0  0  0  0  0  0
   -2.1955   -3.7972   15.7643 H   0  0  0  0  0  0
   -5.5903   -3.3837   14.5315 H   0  0  0  0  0  0
   -4.0754   -4.2654   14.3891 H   0  0  0  0  0  0
   -4.4964   -3.4274   15.9091 H   0  0  0  0  0  0
   -2.9498    1.5386   11.9333 H   0  0  0  0  0  0
   -1.8106    1.8147   13.2468 H   0  0  0  0  0  0
   -1.3985    0.7180   11.9044 H   0  0  0  0  0  0
   -0.1722    0.2893   13.8279 H   0  0  0  0  0  0
   -2.0048    5.7438   14.1562 H   0  0  0  0  0  0
   -4.2930    6.5774   14.5279 H   0  0  0  0  0  0
  1  2  1  0  0  0
  1 40  1  0  0  0
  1 41  1  0  0  0
  1 42  1  0  0  0
  2  3  1  0  0  0
  3  4  2  0  0  0
  3  5  1  0  0  0
  5  6  2  0  0  0
  5 39  1  0  0  0
  6  7  1  0  0  0
  6 43  1  0  0  0
  7  8  2  0  0  0
  7 44  1  0  0  0
  8  9  1  0  0  0
  8 38  1  0  0  0
  9 10  1  0  0  0
  9 45  1  0  0  0
 10 11  2  0  0  0
 10 12  1  0  0  0
 12 13  2  0  0  0
 12 17  1  0  0  0
 13 14  1  0  0  0
 13 46  1  0  0  0
 14 15  2  0  0  0
 14 47  1  0  0  0
 15 16  1  0  0  0
 15 48  1  0  0  0
 16 17  2  0  0  0
 16 18  1  0  0  0
 17 49  1  0  0  0
 18 19  2  0  0  0
 18 37  1  0  0  0
 19 20  1  0  0  0
 19 50  1  0  0  0
 20 21  1  0  0  0
 20 24  1  0  0  0
 21 22  2  0  0  0
 21 51  1  0  0  0
 22 23  1  0  0  0
 22 52  1  0  0  0
 23 24  2  0  0  0
 24 25  1  0  0  0
 25 26  1  0  0  0
 25 37  2  0  0  0
 26 27  1  0  0  0
 26 53  1  0  0  0
 27 28  2  0  0  0
 27 36  1  0  0  0
 28 29  1  0  0  0
 28 54  1  0  0  0
 29 30  2  0  0  0
 29 55  1  0  0  0
 30 31  1  0  0  0
 30 33  1  0  0  0
 31 32  1  0  0  0
 32 56  1  0  0  0
 32 57  1  0  0  0
 32 58  1  0  0  0
 33 34  1  0  0  0
 33 36  2  0  0  0
 34 35  1  0  0  0
 35 59  1  0  0  0
 35 60  1  0  0  0
 35 61  1  0  0  0
 36 62  1  0  0  0
 38 39  2  0  0  0
 38 63  1  0  0  0
 39 64  1  0  0  0
M  END
> <s_m_entry_id>
1012

> <IC50[nM]>
15.2

> <s_m_Source_Path>
/projects/mai/users/kmzp800_harry/pmx_colab/docking_jobs/syk

> <s_m_Source_File>
tnks2_lig.sdf

> <i_m_Source_File_Index>
25

> <s_m_job_name>
glide-dock_SP_tnks2_core_const

> <r_i_docking_score>
-7.88368097724046

> <r_i_glide_gscore>
-7.88368097724046

> <r_i_glide_emodel>
-63.6903327408523

$$$$
CHEMBL3265022
                    3D
 Schrodinger Suite 2021-4.
 50 54  0  0  1  0            999 V2000
   -4.5828   -3.0299   15.7763 C   0  0  0  0  0  0
   -3.9551   -2.1275   14.8758 O   0  0  0  0  0  0
   -2.5831   -1.9957   14.9443 C   0  0  0  0  0  0
   -1.7566   -2.8035   15.7630 C   0  0  0  0  0  0
   -0.3699   -2.5814   15.8174 C   0  0  0  0  0  0
    0.2283   -1.5522   15.0663 C   0  0  0  0  0  0
    1.6086   -1.3615   15.2550 N   0  0  0  0  0  0
    2.5298   -0.4402   14.7275 C   0  0  0  0  0  0
    2.2025    0.3682   13.7571 N   0  0  0  0  0  0
    3.1278    1.2601   13.2553 C   0  0  0  0  0  0
    4.4351    1.2837   13.6849 C   0  0  0  0  0  0
    4.7672    0.4724   14.7213 N   0  0  0  0  0  0
    5.9106    0.3765   15.4881 C   0  0  0  0  0  0
    5.6005   -0.4928   16.5012 C   0  0  0  0  0  0
    4.3614   -1.0694   16.3219 N   0  0  0  0  0  0
    3.8315   -0.4213   15.2922 C   0  0  0  0  0  0
    2.6262    2.2663   12.2885 C   0  0  0  0  0  0
    3.4584    2.7796   11.2618 C   0  0  0  0  0  0
    2.9882    3.7338   10.3365 C   0  0  0  0  0  0
    1.6709    4.2330   10.4259 C   0  0  0  0  0  0
    0.8506    5.1661    9.7162 C   0  0  0  0  0  0
   -0.3414    5.2685   10.2535 N   0  0  0  0  0  0
   -0.3434    4.4275   11.3218 N   0  0  0  0  0  0
   -1.5390    4.3509   12.1350 C   0  0  0  0  0  0
    0.8530    3.7412   11.4771 C   0  0  0  0  0  0
    1.3110    2.7746   12.3910 C   0  0  0  0  0  0
   -0.5920   -0.7741   14.2174 C   0  0  0  0  0  0
   -1.9927   -0.9865   14.1516 C   0  0  0  0  0  0
   -2.8393   -0.2317   13.3635 O   0  0  0  0  0  0
   -2.2595    0.6589   12.4197 C   0  0  0  0  0  0
   -5.6638   -2.9739   15.6479 H   0  0  0  0  0  0
   -4.2817   -4.0601   15.5825 H   0  0  0  0  0  0
   -4.3610   -2.7771   16.8145 H   0  0  0  0  0  0
   -2.1607   -3.5908   16.3817 H   0  0  0  0  0  0
    0.2313   -3.1958   16.4738 H   0  0  0  0  0  0
    2.0216   -1.9503   15.9677 H   0  0  0  0  0  0
    5.1835    1.9900   13.3431 H   0  0  0  0  0  0
    6.7683    0.9995   15.2843 H   0  0  0  0  0  0
    6.1235   -0.7387   17.4003 H   0  0  0  0  0  0
    4.4701    2.4159   11.1591 H   0  0  0  0  0  0
    3.6410    4.0896    9.5536 H   0  0  0  0  0  0
    1.0974    5.7595    8.8481 H   0  0  0  0  0  0
   -1.2965    3.9497   13.1191 H   0  0  0  0  0  0
   -1.9683    5.3453   12.2632 H   0  0  0  0  0  0
   -2.2705    3.7040   11.6510 H   0  0  0  0  0  0
    0.6572    2.4310   13.1781 H   0  0  0  0  0  0
   -0.1591    0.0147   13.6320 H   0  0  0  0  0  0
   -3.0458    1.0981   11.8062 H   0  0  0  0  0  0
   -1.7358    1.4753   12.9175 H   0  0  0  0  0  0
   -1.5702    0.1427   11.7493 H   0  0  0  0  0  0
  1  2  1  0  0  0
  1 31  1  0  0  0
  1 32  1  0  0  0
  1 33  1  0  0  0
  2  3  1  0  0  0
  3  4  2  0  0  0
  3 28  1  0  0  0
  4  5  1  0  0  0
  4 34  1  0  0  0
  5  6  2  0  0  0
  5 35  1  0  0  0
  6  7  1  0  0  0
  6 27  1  0  0  0
  7  8  1  0  0  0
  7 36  1  0  0  0
  8  9  2  0  0  0
  8 16  1  0  0  0
  9 10  1  0  0  0
 10 11  2  0  0  0
 10 17  1  0  0  0
 11 12  1  0  0  0
 11 37  1  0  0  0
 12 13  1  0  0  0
 12 16  1  0  0  0
 13 14  2  0  0  0
 13 38  1  0  0  0
 14 15  1  0  0  0
 14 39  1  0  0  0
 15 16  2  0  0  0
 17 18  2  0  0  0
 17 26  1  0  0  0
 18 19  1  0  0  0
 18 40  1  0  0  0
 19 20  2  0  0  0
 19 41  1  0  0  0
 20 21  1  0  0  0
 20 25  1  0  0  0
 21 22  2  0  0  0
 21 42  1  0  0  0
 22 23  1  0  0  0
 23 24  1  0  0  0
 23 25  1  0  0  0
 24 43  1  0  0  0
 24 44  1  0  0  0
 24 45  1  0  0  0
 25 26  2  0  0  0
 26 46  1  0  0  0
 27 28  2  0  0  0
 27 47  1  0  0  0
 28 29  1  0  0  0
 29 30  1  0  0  0
 30 48  1  0  0  0
 30 49  1  0  0  0
 30 50  1  0  0  0
M  END
> <s_m_entry_id>
1013

> <IC50[nM]>
12.3

> <s_m_Source_Path>
/projects/mai/users/kmzp800_harry/pmx_colab/docking_jobs/syk

> <s_m_Source_File>
tnks2_lig.sdf

> <i_m_Source_File_Index>
26

> <s_m_job_name>
glide-dock_SP_tnks2_core_const

> <r_i_docking_score>
-7.09391580863984

> <r_i_glide_gscore>
-7.09391580863984

> <r_i_glide_emodel>
-49.2855574168891

$$$$
CHEMBL3264995
                    3D
 Schrodinger Suite 2021-4.
 60 64  0  0  1  0            999 V2000
   -4.4811   -3.3477   14.2351 C   0  0  0  0  0  0
   -3.8320   -2.1280   13.9156 O   0  0  0  0  0  0
   -2.4958   -1.9837   14.2298 C   0  0  0  0  0  0
   -1.7138   -2.9850   14.8479 C   0  0  0  0  0  0
   -0.3676   -2.7477   15.1661 C   0  0  0  0  0  0
    0.2429   -1.5153   14.8637 C   0  0  0  0  0  0
    1.5847   -1.3329   15.2311 N   0  0  0  0  0  0
    2.5317   -0.4175   14.7315 C   0  0  0  0  0  0
    2.1970    0.4034   13.7672 N   0  0  0  0  0  0
    3.1191    1.2658   13.2367 C   0  0  0  0  0  0
    4.4282    1.3021   13.6936 C   0  0  0  0  0  0
    4.7606    0.4884   14.7347 N   0  0  0  0  0  0
    5.9127    0.3728   15.4896 C   0  0  0  0  0  0
    5.6022   -0.4918   16.5163 C   0  0  0  0  0  0
    4.3733   -1.0718   16.3337 N   0  0  0  0  0  0
    3.8365   -0.4155   15.2952 C   0  0  0  0  0  0
    2.6607    2.2059   12.1768 C   0  0  0  0  0  0
    3.5375    2.6907   11.1755 C   0  0  0  0  0  0
    3.0747    3.4875   10.1145 C   0  0  0  0  0  0
    1.7137    3.8285   10.0286 C   0  0  0  0  0  0
    0.8145    3.3948   11.0307 C   0  0  0  0  0  0
    1.2984    2.6101   12.1052 C   0  0  0  0  0  0
   -0.6452    3.7228   10.9088 C   0  0  0  0  0  0
   -1.2311    3.5170    9.8447 O   0  0  0  0  0  0
   -1.1941    4.2535   12.0150 N   0  0  0  0  0  0
   -2.5078    4.7579   12.2115 C   0  0  0  0  0  0
   -2.7249    5.4868   13.3935 C   0  0  0  0  0  0
   -3.9985    6.0056   13.6867 C   0  0  0  0  0  0
   -5.0649    5.8352   12.7920 C   0  0  0  0  0  0
   -4.8587    5.0860   11.6098 C   0  0  0  0  0  0
   -3.5937    4.5392   11.3237 C   0  0  0  0  0  0
   -6.4073    6.4619   13.0731 C   0  0  0  0  0  0
   -6.4522    7.4728   13.8172 O   0  0  0  0  0  0
   -7.4276    5.9586   12.5566 O   0  5  0  0  0  0
   -0.5346   -0.5187   14.2204 C   0  0  0  0  0  0
   -1.8923   -0.7433   13.9057 C   0  0  0  0  0  0
   -2.7122    0.1935   13.3109 O   0  0  0  0  0  0
   -2.1140    1.3612   12.7749 C   0  0  0  0  0  0
   -5.5314   -3.2900   13.9333 H   0  0  0  0  0  0
   -4.0253   -4.1802   13.6971 H   0  0  0  0  0  0
   -4.4604   -3.5385   15.3091 H   0  0  0  0  0  0
   -2.1286   -3.9515   15.1168 H   0  0  0  0  0  0
    0.2156   -3.5204   15.6445 H   0  0  0  0  0  0
    1.9231   -1.9245   15.9858 H   0  0  0  0  0  0
    5.1924    1.9735   13.3196 H   0  0  0  0  0  0
    6.7686    0.9914   15.2530 H   0  0  0  0  0  0
    6.1665   -0.7239   17.3924 H   0  0  0  0  0  0
    4.5741    2.4130   11.1802 H   0  0  0  0  0  0
    3.7516    3.8233    9.3406 H   0  0  0  0  0  0
    1.3522    4.4279    9.2045 H   0  0  0  0  0  0
    0.6060    2.2625   12.8628 H   0  0  0  0  0  0
   -0.5557    4.4217   12.7792 H   0  0  0  0  0  0
   -1.9151    5.6476   14.0874 H   0  0  0  0  0  0
   -4.1414    6.5480   14.6134 H   0  0  0  0  0  0
   -5.6773    4.9212   10.9181 H   0  0  0  0  0  0
   -3.4699    3.9722   10.4115 H   0  0  0  0  0  0
   -0.0816    0.4359   14.0074 H   0  0  0  0  0  0
   -2.8731    2.0092   12.3282 H   0  0  0  0  0  0
   -1.6185    1.9174   13.5698 H   0  0  0  0  0  0
   -1.3946    1.1070   11.9944 H   0  0  0  0  0  0
  1  2  1  0  0  0
  1 39  1  0  0  0
  1 40  1  0  0  0
  1 41  1  0  0  0
  2  3  1  0  0  0
  3  4  2  0  0  0
  3 36  1  0  0  0
  4  5  1  0  0  0
  4 42  1  0  0  0
  5  6  2  0  0  0
  5 43  1  0  0  0
  6  7  1  0  0  0
  6 35  1  0  0  0
  7  8  1  0  0  0
  7 44  1  0  0  0
  8  9  2  0  0  0
  8 16  1  0  0  0
  9 10  1  0  0  0
 10 11  2  0  0  0
 10 17  1  0  0  0
 11 12  1  0  0  0
 11 45  1  0  0  0
 12 13  1  0  0  0
 12 16  1  0  0  0
 13 14  2  0  0  0
 13 46  1  0  0  0
 14 15  1  0  0  0
 14 47  1  0  0  0
 15 16  2  0  0  0
 17 18  2  0  0  0
 17 22  1  0  0  0
 18 19  1  0  0  0
 18 48  1  0  0  0
 19 20  2  0  0  0
 19 49  1  0  0  0
 20 21  1  0  0  0
 20 50  1  0  0  0
 21 22  2  0  0  0
 21 23  1  0  0  0
 22 51  1  0  0  0
 23 24  2  0  0  0
 23 25  1  0  0  0
 25 26  1  0  0  0
 25 52  1  0  0  0
 26 27  2  0  0  0
 26 31  1  0  0  0
 27 28  1  0  0  0
 27 53  1  0  0  0
 28 29  2  0  0  0
 28 54  1  0  0  0
 29 30  1  0  0  0
 29 32  1  0  0  0
 30 31  2  0  0  0
 30 55  1  0  0  0
 31 56  1  0  0  0
 32 33  2  0  0  0
 32 34  1  0  0  0
 35 36  2  0  0  0
 35 57  1  0  0  0
 36 37  1  0  0  0
 37 38  1  0  0  0
 38 58  1  0  0  0
 38 59  1  0  0  0
 38 60  1  0  0  0
M  CHG  1  34  -1
M  END
> <s_m_entry_id>
1014

> <IC50[nM]>
0.84

> <s_m_Source_Path>
/projects/mai/users/kmzp800_harry/pmx_colab/docking_jobs/syk

> <s_m_Source_File>
tnks2_lig.sdf

> <i_m_Source_File_Index>
27

> <s_m_job_name>
glide-dock_SP_tnks2_core_const

> <r_i_docking_score>
-8.27475453916887

> <r_i_glide_gscore>
-8.27475453916887

> <r_i_glide_emodel>
-72.9264146053613

$$$$
CHEMBL3265001
                    3D
 Schrodinger Suite 2021-4.
 62 67  0  0  1  0            999 V2000
   -4.5901   -3.1629   15.3747 C   0  0  0  0  0  0
   -3.9536   -2.1445   14.6160 O   0  0  0  0  0  0
   -2.5893   -1.9893   14.7558 C   0  0  0  0  0  0
   -1.7765   -2.8460   15.5379 C   0  0  0  0  0  0
   -0.3978   -2.6039   15.6664 C   0  0  0  0  0  0
    0.2081   -1.5114   15.0179 C   0  0  0  0  0  0
    1.5815   -1.3217   15.2602 N   0  0  0  0  0  0
    2.5265   -0.4271   14.7288 C   0  0  0  0  0  0
    2.2086    0.3840   13.7588 N   0  0  0  0  0  0
    3.1215    1.2730   13.2498 C   0  0  0  0  0  0
    4.4196    1.3242   13.7184 C   0  0  0  0  0  0
    4.7617    0.4869   14.7302 N   0  0  0  0  0  0
    5.9073    0.3858   15.4921 C   0  0  0  0  0  0
    5.6029   -0.4939   16.4977 C   0  0  0  0  0  0
    4.3638   -1.0698   16.3206 N   0  0  0  0  0  0
    3.8300   -0.4194   15.2908 C   0  0  0  0  0  0
    2.6640    2.2519   12.2284 C   0  0  0  0  0  0
    3.5839    2.7793   11.2862 C   0  0  0  0  0  0
    3.1787    3.6752   10.2829 C   0  0  0  0  0  0
    1.8358    4.0733   10.2052 C   0  0  0  0  0  0
    0.9008    3.5992   11.1476 C   0  0  0  0  0  0
    1.3217    2.7022   12.1619 C   0  0  0  0  0  0
   -0.5400    3.9782   10.9912 C   0  0  0  0  0  0
   -1.0484    3.9777    9.8701 O   0  0  0  0  0  0
   -1.1668    4.3443   12.1241 N   0  0  0  0  0  0
   -2.5012    4.8148   12.2737 C   0  0  0  0  0  0
   -2.7953    5.5838   13.4169 C   0  0  0  0  0  0
   -4.0983    6.0686   13.6336 C   0  0  0  0  0  0
   -5.1291    5.8361   12.6998 C   0  0  0  0  0  0
   -4.8360    5.0450   11.5674 C   0  0  0  0  0  0
   -3.5429    4.5280   11.3586 C   0  0  0  0  0  0
   -6.4739    6.4049   12.9103 C   0  0  0  0  0  0
   -7.5958    5.7394   12.6087 N   0  5  0  0  0  0
   -8.5531    6.6161   12.9517 N   0  0  0  0  0  0
   -7.9958    7.7459   13.4190 N   0  0  0  0  0  0
   -6.6586    7.6347   13.4087 N   0  0  0  0  0  0
   -0.6015   -0.6708   14.2169 C   0  0  0  0  0  0
   -1.9941   -0.9011   14.0809 C   0  0  0  0  0  0
   -2.8316   -0.0953   13.3348 O   0  0  0  0  0  0
   -2.2478    0.8924   12.4964 C   0  0  0  0  0  0
   -5.6645   -3.1263   15.1961 H   0  0  0  0  0  0
   -4.2414   -4.1540   15.0822 H   0  0  0  0  0  0
   -4.4297   -3.0241   16.4449 H   0  0  0  0  0  0
   -2.1867   -3.6901   16.0717 H   0  0  0  0  0  0
    0.1926   -3.2608   16.2903 H   0  0  0  0  0  0
    1.9765   -1.9285   15.9679 H   0  0  0  0  0  0
    5.1701    2.0358   13.3936 H   0  0  0  0  0  0
    6.7580    1.0205   15.2972 H   0  0  0  0  0  0
    6.1308   -0.7279   17.3967 H   0  0  0  0  0  0
    4.6170    2.4667   11.2960 H   0  0  0  0  0  0
    3.8943    4.0414    9.5617 H   0  0  0  0  0  0
    1.5246    4.7429    9.4157 H   0  0  0  0  0  0
    0.6027    2.3191   12.8706 H   0  0  0  0  0  0
   -0.5839    4.3975   12.9468 H   0  0  0  0  0  0
   -2.0240    5.7970   14.1437 H   0  0  0  0  0  0
   -4.3074    6.6468   14.5222 H   0  0  0  0  0  0
   -5.6117    4.8381   10.8447 H   0  0  0  0  0  0
   -3.3765    3.9201   10.4829 H   0  0  0  0  0  0
   -0.1707    0.1817   13.7273 H   0  0  0  0  0  0
   -3.0250    1.3556   11.8889 H   0  0  0  0  0  0
   -1.7794    1.6798   13.0870 H   0  0  0  0  0  0
   -1.5133    0.4621   11.8134 H   0  0  0  0  0  0
  1  2  1  0  0  0
  1 41  1  0  0  0
  1 42  1  0  0  0
  1 43  1  0  0  0
  2  3  1  0  0  0
  3  4  2  0  0  0
  3 38  1  0  0  0
  4  5  1  0  0  0
  4 44  1  0  0  0
  5  6  2  0  0  0
  5 45  1  0  0  0
  6  7  1  0  0  0
  6 37  1  0  0  0
  7  8  1  0  0  0
  7 46  1  0  0  0
  8  9  2  0  0  0
  8 16  1  0  0  0
  9 10  1  0  0  0
 10 11  2  0  0  0
 10 17  1  0  0  0
 11 12  1  0  0  0
 11 47  1  0  0  0
 12 13  1  0  0  0
 12 16  1  0  0  0
 13 14  2  0  0  0
 13 48  1  0  0  0
 14 15  1  0  0  0
 14 49  1  0  0  0
 15 16  2  0  0  0
 17 18  2  0  0  0
 17 22  1  0  0  0
 18 19  1  0  0  0
 18 50  1  0  0  0
 19 20  2  0  0  0
 19 51  1  0  0  0
 20 21  1  0  0  0
 20 52  1  0  0  0
 21 22  2  0  0  0
 21 23  1  0  0  0
 22 53  1  0  0  0
 23 24  2  0  0  0
 23 25  1  0  0  0
 25 26  1  0  0  0
 25 54  1  0  0  0
 26 27  2  0  0  0
 26 31  1  0  0  0
 27 28  1  0  0  0
 27 55  1  0  0  0
 28 29  2  0  0  0
 28 56  1  0  0  0
 29 30  1  0  0  0
 29 32  1  0  0  0
 30 31  2  0  0  0
 30 57  1  0  0  0
 31 58  1  0  0  0
 32 36  2  0  0  0
 32 33  1  0  0  0
 33 34  1  0  0  0
 34 35  2  0  0  0
 35 36  1  0  0  0
 37 38  2  0  0  0
 37 59  1  0  0  0
 38 39  1  0  0  0
 39 40  1  0  0  0
 40 60  1  0  0  0
 40 61  1  0  0  0
 40 62  1  0  0  0
M  CHG  1  33  -1
M  END
> <s_m_entry_id>
1015

> <IC50[nM]>
1.5

> <s_m_Source_Path>
/projects/mai/users/kmzp800_harry/pmx_colab/docking_jobs/syk

> <s_m_Source_File>
tnks2_lig.sdf

> <i_m_Source_File_Index>
28

> <s_m_job_name>
glide-dock_SP_tnks2_core_const

> <r_i_docking_score>
-8.54954525670229

> <r_i_glide_gscore>
-8.54954525670229

> <r_i_glide_emodel>
-77.519155386274

$$$$
CHEMBL3264999
                    3D
 Schrodinger Suite 2021-4.
 62 66  0  0  1  0            999 V2000
   -4.4514   -3.5388   14.5507 C   0  0  0  0  0  0
   -3.8658   -2.3203   14.1136 O   0  0  0  0  0  0
   -2.5345   -2.0985   14.4122 C   0  0  0  0  0  0
   -1.7248   -3.0022   15.1506 C   0  0  0  0  0  0
   -0.3739   -2.7059   15.4134 C   0  0  0  0  0  0
    0.2058   -1.5054   14.9496 C   0  0  0  0  0  0
    1.5490   -1.2700   15.2960 N   0  0  0  0  0  0
    2.5180   -0.4146   14.7354 C   0  0  0  0  0  0
    2.1964    0.3757   13.7455 N   0  0  0  0  0  0
    3.1227    1.2587   13.2252 C   0  0  0  0  0  0
    4.4254    1.2945   13.6763 C   0  0  0  0  0  0
    4.7677    0.4890   14.7152 N   0  0  0  0  0  0
    5.9123    0.3808   15.4795 C   0  0  0  0  0  0
    5.6058   -0.4988   16.4871 C   0  0  0  0  0  0
    4.3593   -1.0570   16.3206 N   0  0  0  0  0  0
    3.8282   -0.4093   15.2875 C   0  0  0  0  0  0
    2.6505    2.2510   12.2214 C   0  0  0  0  0  0
    3.5570    2.8021   11.2759 C   0  0  0  0  0  0
    3.1284    3.6932   10.2792 C   0  0  0  0  0  0
    1.7788    4.0648   10.2047 C   0  0  0  0  0  0
    0.8584    3.5744   11.1531 C   0  0  0  0  0  0
    1.3010    2.6901   12.1707 C   0  0  0  0  0  0
   -0.5954    3.8981   10.9861 C   0  0  0  0  0  0
   -1.1235    3.7374    9.8795 O   0  0  0  0  0  0
   -1.2169    4.3558   12.0932 N   0  0  0  0  0  0
   -2.5586    4.8221   12.2327 C   0  0  0  0  0  0
   -2.8718    5.5206   13.4160 C   0  0  0  0  0  0
   -4.1736    6.0074   13.6384 C   0  0  0  0  0  0
   -5.1736    5.8475   12.6586 C   0  0  0  0  0  0
   -4.8677    5.1452   11.4744 C   0  0  0  0  0  0
   -3.5787    4.6224   11.2680 C   0  0  0  0  0  0
   -6.5226    6.4637   12.8637 C   0  0  0  0  0  0
   -6.6572    7.5447   13.4265 O   0  0  0  0  0  0
   -7.5681    5.7539   12.4389 N   0  0  0  0  0  0
   -0.6070   -0.6048   14.2184 C   0  0  0  0  0  0
   -1.9695   -0.8905   13.9421 C   0  0  0  0  0  0
   -2.8033   -0.0423   13.2399 O   0  0  0  0  0  0
   -2.2202    1.0684   12.5753 C   0  0  0  0  0  0
   -5.4897   -3.5645   14.2292 H   0  0  0  0  0  0
   -3.9441   -4.4110   14.1331 H   0  0  0  0  0  0
   -4.4524   -3.6164   15.6384 H   0  0  0  0  0  0
   -2.1169   -3.9355   15.5312 H   0  0  0  0  0  0
    0.2177   -3.4090   15.9880 H   0  0  0  0  0  0
    1.9320   -1.8895   15.9993 H   0  0  0  0  0  0
    5.1746    1.9997   13.3387 H   0  0  0  0  0  0
    6.7720    1.0079   15.2794 H   0  0  0  0  0  0
    6.1262   -0.7546   17.3833 H   0  0  0  0  0  0
    4.5956    2.5025   11.2724 H   0  0  0  0  0  0
    3.8307    4.0809    9.5558 H   0  0  0  0  0  0
    1.4441    4.7278    9.4186 H   0  0  0  0  0  0
    0.5886    2.2964   12.8810 H   0  0  0  0  0  0
   -0.6204    4.4784   12.9004 H   0  0  0  0  0  0
   -2.1208    5.6664   14.1770 H   0  0  0  0  0  0
   -4.3912    6.5320   14.5597 H   0  0  0  0  0  0
   -5.6120    5.0165   10.7044 H   0  0  0  0  0  0
   -3.4004    4.0875   10.3475 H   0  0  0  0  0  0
   -8.4945    6.1209   12.5691 H   0  0  0  0  0  0
   -7.4260    4.8641   11.9927 H   0  0  0  0  0  0
   -0.1980    0.3404   13.9024 H   0  0  0  0  0  0
   -2.9820    1.5632   11.9699 H   0  0  0  0  0  0
   -1.8308    1.7964   13.2910 H   0  0  0  0  0  0
   -1.4187    0.7607   11.9033 H   0  0  0  0  0  0
  1  2  1  0  0  0
  1 39  1  0  0  0
  1 40  1  0  0  0
  1 41  1  0  0  0
  2  3  1  0  0  0
  3  4  2  0  0  0
  3 36  1  0  0  0
  4  5  1  0  0  0
  4 42  1  0  0  0
  5  6  2  0  0  0
  5 43  1  0  0  0
  6  7  1  0  0  0
  6 35  1  0  0  0
  7  8  1  0  0  0
  7 44  1  0  0  0
  8  9  2  0  0  0
  8 16  1  0  0  0
  9 10  1  0  0  0
 10 11  2  0  0  0
 10 17  1  0  0  0
 11 12  1  0  0  0
 11 45  1  0  0  0
 12 13  1  0  0  0
 12 16  1  0  0  0
 13 14  2  0  0  0
 13 46  1  0  0  0
 14 15  1  0  0  0
 14 47  1  0  0  0
 15 16  2  0  0  0
 17 18  2  0  0  0
 17 22  1  0  0  0
 18 19  1  0  0  0
 18 48  1  0  0  0
 19 20  2  0  0  0
 19 49  1  0  0  0
 20 21  1  0  0  0
 20 50  1  0  0  0
 21 22  2  0  0  0
 21 23  1  0  0  0
 22 51  1  0  0  0
 23 24  2  0  0  0
 23 25  1  0  0  0
 25 26  1  0  0  0
 25 52  1  0  0  0
 26 27  2  0  0  0
 26 31  1  0  0  0
 27 28  1  0  0  0
 27 53  1  0  0  0
 28 29  2  0  0  0
 28 54  1  0  0  0
 29 30  1  0  0  0
 29 32  1  0  0  0
 30 31  2  0  0  0
 30 55  1  0  0  0
 31 56  1  0  0  0
 32 33  2  0  0  0
 32 34  1  0  0  0
 34 57  1  0  0  0
 34 58  1  0  0  0
 35 36  2  0  0  0
 35 59  1  0  0  0
 36 37  1  0  0  0
 37 38  1  0  0  0
 38 60  1  0  0  0
 38 61  1  0  0  0
 38 62  1  0  0  0
M  END
> <s_m_entry_id>
1016

> <IC50[nM]>
4.3

> <s_m_Source_Path>
/projects/mai/users/kmzp800_harry/pmx_colab/docking_jobs/syk

> <s_m_Source_File>
tnks2_lig.sdf

> <i_m_Source_File_Index>
29

> <s_m_job_name>
glide-dock_SP_tnks2_core_const

> <r_i_docking_score>
-7.9935639082841

> <r_i_glide_gscore>
-7.9935639082841

> <r_i_glide_emodel>
-66.1356187722963

$$$$
CHEMBL3265036
                    3D
 Schrodinger Suite 2021-4.
 55 60  0  0  1  0            999 V2000
   -5.3797   -3.3575   15.6403 C   0  0  0  0  0  0
   -6.6625   -2.8988   14.9260 C   0  0  0  0  0  0
   -6.4184   -1.9934   13.8509 O   0  0  0  0  0  0
   -5.8246   -2.5932   12.7063 C   0  0  0  0  0  0
   -4.2999   -2.4403   12.7256 C   0  0  0  0  0  0
   -3.6542   -3.0072   13.9154 N   0  0  0  0  0  0
   -4.3521   -4.0245   14.7122 C   0  0  0  0  0  0
   -2.3824   -2.5363   14.3243 C   0  0  0  0  0  0
   -1.5127   -3.3375   15.1139 C   0  0  0  0  0  0
   -0.2142   -2.8955   15.4297 C   0  0  0  0  0  0
    0.2731   -1.6564   14.9691 C   0  0  0  0  0  0
    1.5958   -1.3149   15.3035 N   0  0  0  0  0  0
    2.5227   -0.4274   14.7305 C   0  0  0  0  0  0
    2.1798    0.3806   13.7583 N   0  0  0  0  0  0
    3.1149    1.2691   13.2546 C   0  0  0  0  0  0
    4.4266    1.2974   13.6860 C   0  0  0  0  0  0
    4.7562    0.4832   14.7233 N   0  0  0  0  0  0
    5.9108    0.3689   15.4715 C   0  0  0  0  0  0
    5.6039   -0.5014   16.4866 C   0  0  0  0  0  0
    4.3499   -1.0527   16.3291 N   0  0  0  0  0  0
    3.8268   -0.4149   15.2875 C   0  0  0  0  0  0
    2.6330    2.2419   12.2369 C   0  0  0  0  0  0
    3.5034    2.7696   11.2441 C   0  0  0  0  0  0
    3.0547    3.6796   10.2651 C   0  0  0  0  0  0
    1.7059    4.0917   10.2305 C   0  0  0  0  0  0
    0.8729    4.9239    9.4011 C   0  0  0  0  0  0
   -0.3551    4.9921    9.8616 N   0  0  0  0  0  0
   -0.3649    4.2056   10.9725 N   0  0  0  0  0  0
    0.8491    3.6031   11.2529 C   0  0  0  0  0  0
    1.2936    2.7046   12.2423 C   0  0  0  0  0  0
   -0.6011   -0.8332   14.2320 C   0  0  0  0  0  0
   -1.9093   -1.2552   13.9299 C   0  0  0  0  0  0
   -5.6521   -4.0805   16.4144 H   0  0  0  0  0  0
   -4.9222   -2.5153   16.1632 H   0  0  0  0  0  0
   -7.2164   -3.7675   14.5669 H   0  0  0  0  0  0
   -7.3093   -2.4175   15.6613 H   0  0  0  0  0  0
   -6.2193   -2.0673   11.8356 H   0  0  0  0  0  0
   -6.1052   -3.6394   12.5978 H   0  0  0  0  0  0
   -4.1175   -1.3741   12.6601 H   0  0  0  0  0  0
   -3.8750   -2.9081   11.8350 H   0  0  0  0  0  0
   -4.8379   -4.7581   14.0622 H   0  0  0  0  0  0
   -3.6979   -4.6276   15.3377 H   0  0  0  0  0  0
   -1.7695   -4.3227   15.4818 H   0  0  0  0  0  0
    0.4298   -3.5357   16.0140 H   0  0  0  0  0  0
    2.0207   -1.9039   16.0080 H   0  0  0  0  0  0
    5.1838    1.9954   13.3218 H   0  0  0  0  0  0
    6.7807    0.9826   15.2573 H   0  0  0  0  0  0
    6.1494   -0.7472   17.3730 H   0  0  0  0  0  0
    4.5352    2.4535   11.2142 H   0  0  0  0  0  0
    3.7377    4.0591    9.5191 H   0  0  0  0  0  0
    1.1323    5.4676    8.4982 H   0  0  0  0  0  0
   -1.2112    4.1052   11.5119 H   0  0  0  0  0  0
    0.5892    2.3627   12.9863 H   0  0  0  0  0  0
   -0.2876    0.1389   13.8918 H   0  0  0  0  0  0
   -2.5138   -0.5612   13.3671 H   0  0  0  0  0  0
  1  2  1  0  0  0
  1  7  1  0  0  0
  1 33  1  0  0  0
  1 34  1  0  0  0
  2  3  1  0  0  0
  2 35  1  0  0  0
  2 36  1  0  0  0
  3  4  1  0  0  0
  4  5  1  0  0  0
  4 37  1  0  0  0
  4 38  1  0  0  0
  5  6  1  0  0  0
  5 39  1  0  0  0
  5 40  1  0  0  0
  6  7  1  0  0  0
  6  8  1  0  0  0
  7 41  1  0  0  0
  7 42  1  0  0  0
  8  9  2  0  0  0
  8 32  1  0  0  0
  9 10  1  0  0  0
  9 43  1  0  0  0
 10 11  2  0  0  0
 10 44  1  0  0  0
 11 12  1  0  0  0
 11 31  1  0  0  0
 12 13  1  0  0  0
 12 45  1  0  0  0
 13 14  2  0  0  0
 13 21  1  0  0  0
 14 15  1  0  0  0
 15 16  2  0  0  0
 15 22  1  0  0  0
 16 17  1  0  0  0
 16 46  1  0  0  0
 17 18  1  0  0  0
 17 21  1  0  0  0
 18 19  2  0  0  0
 18 47  1  0  0  0
 19 20  1  0  0  0
 19 48  1  0  0  0
 20 21  2  0  0  0
 22 23  2  0  0  0
 22 30  1  0  0  0
 23 24  1  0  0  0
 23 49  1  0  0  0
 24 25  2  0  0  0
 24 50  1  0  0  0
 25 26  1  0  0  0
 25 29  1  0  0  0
 26 27  2  0  0  0
 26 51  1  0  0  0
 27 28  1  0  0  0
 28 29  1  0  0  0
 28 52  1  0  0  0
 29 30  2  0  0  0
 30 53  1  0  0  0
 31 32  2  0  0  0
 31 54  1  0  0  0
 32 55  1  0  0  0
M  END
> <s_m_entry_id>
1017

> <IC50[nM]>
23.1

> <s_m_Source_Path>
/projects/mai/users/kmzp800_harry/pmx_colab/docking_jobs/syk

> <s_m_Source_File>
tnks2_lig.sdf

> <i_m_Source_File_Index>
30

> <s_m_job_name>
glide-dock_SP_tnks2_core_const

> <r_i_docking_score>
-7.18112322173025

> <r_i_glide_gscore>
-7.18112322173025

> <r_i_glide_emodel>
-48.6106112502449

$$$$
CHEMBL3265017
                    3D
 Schrodinger Suite 2021-4.
 47 51  0  0  1  0            999 V2000
   -4.4828   -3.4588   14.5524 C   0  0  0  0  0  0
   -3.8865   -2.2349   14.1417 O   0  0  0  0  0  0
   -2.5500   -2.0367   14.4308 C   0  0  0  0  0  0
   -1.7585   -2.9449   15.1809 C   0  0  0  0  0  0
   -0.3992   -2.6879   15.4218 C   0  0  0  0  0  0
    0.2008   -1.5081   14.9414 C   0  0  0  0  0  0
    1.5598   -1.3081   15.2608 N   0  0  0  0  0  0
    2.5192   -0.4254   14.7305 C   0  0  0  0  0  0
    2.1964    0.3880   13.7616 N   0  0  0  0  0  0
    3.1296    1.2667   13.2470 C   0  0  0  0  0  0
    4.4327    1.2924   13.6922 C   0  0  0  0  0  0
    4.7641    0.4772   14.7232 N   0  0  0  0  0  0
    5.9100    0.3653   15.4752 C   0  0  0  0  0  0
    5.6029   -0.4951   16.4943 C   0  0  0  0  0  0
    4.3632   -1.0683   16.3202 N   0  0  0  0  0  0
    3.8268   -0.4193   15.2917 C   0  0  0  0  0  0
    2.6532    2.2292   12.2218 C   0  0  0  0  0  0
    3.5258    2.7172   11.2167 C   0  0  0  0  0  0
    3.0837    3.6038   10.2133 C   0  0  0  0  0  0
    1.7464    4.0533   10.1900 C   0  0  0  0  0  0
    0.9316    4.9122    9.3842 C   0  0  0  0  0  0
   -0.2943    4.9942    9.8417 N   0  0  0  0  0  0
   -0.3245    4.2024   10.9430 N   0  0  0  0  0  0
    0.8867    3.5962   11.2220 C   0  0  0  0  0  0
    1.3172    2.6989   12.2170 C   0  0  0  0  0  0
   -0.5912   -0.5899   14.2111 C   0  0  0  0  0  0
   -1.9602   -0.8480   13.9452 C   0  0  0  0  0  0
   -2.7822    0.0163   13.2499 O   0  0  0  0  0  0
   -2.1816    1.1153   12.5760 C   0  0  0  0  0  0
   -5.5248   -3.4787   14.2291 H   0  0  0  0  0  0
   -4.4745   -3.5625   15.6375 H   0  0  0  0  0  0
   -3.9851   -4.3194   14.1047 H   0  0  0  0  0  0
   -2.1674   -3.8653   15.5656 H   0  0  0  0  0  0
    0.1794   -3.4001   15.9913 H   0  0  0  0  0  0
    1.9532   -1.9876   15.9098 H   0  0  0  0  0  0
    5.1920    1.9795   13.3258 H   0  0  0  0  0  0
    6.7607    1.0013   15.2671 H   0  0  0  0  0  0
    6.1405   -0.7533   17.3756 H   0  0  0  0  0  0
    4.5558    2.3922   11.1841 H   0  0  0  0  0  0
    3.7686    3.9430    9.4528 H   0  0  0  0  0  0
    1.2051    5.4700    8.5005 H   0  0  0  0  0  0
   -1.1758    4.1106   11.4830 H   0  0  0  0  0  0
    0.6247    2.3567   12.9708 H   0  0  0  0  0  0
   -0.1616    0.3323   13.8728 H   0  0  0  0  0  0
   -2.9382    1.6449   12.0015 H   0  0  0  0  0  0
   -1.7569    1.8208   13.2906 H   0  0  0  0  0  0
   -1.4086    0.7867   11.8807 H   0  0  0  0  0  0
  1  2  1  0  0  0
  1 30  1  0  0  0
  1 31  1  0  0  0
  1 32  1  0  0  0
  2  3  1  0  0  0
  3  4  2  0  0  0
  3 27  1  0  0  0
  4  5  1  0  0  0
  4 33  1  0  0  0
  5  6  2  0  0  0
  5 34  1  0  0  0
  6  7  1  0  0  0
  6 26  1  0  0  0
  7  8  1  0  0  0
  7 35  1  0  0  0
  8  9  2  0  0  0
  8 16  1  0  0  0
  9 10  1  0  0  0
 10 11  2  0  0  0
 10 17  1  0  0  0
 11 12  1  0  0  0
 11 36  1  0  0  0
 12 13  1  0  0  0
 12 16  1  0  0  0
 13 14  2  0  0  0
 13 37  1  0  0  0
 14 15  1  0  0  0
 14 38  1  0  0  0
 15 16  2  0  0  0
 17 18  2  0  0  0
 17 25  1  0  0  0
 18 19  1  0  0  0
 18 39  1  0  0  0
 19 20  2  0  0  0
 19 40  1  0  0  0
 20 21  1  0  0  0
 20 24  1  0  0  0
 21 22  2  0  0  0
 21 41  1  0  0  0
 22 23  1  0  0  0
 23 24  1  0  0  0
 23 42  1  0  0  0
 24 25  2  0  0  0
 25 43  1  0  0  0
 26 27  2  0  0  0
 26 44  1  0  0  0
 27 28  1  0  0  0
 28 29  1  0  0  0
 29 45  1  0  0  0
 29 46  1  0  0  0
 29 47  1  0  0  0
M  END
> <s_m_entry_id>
1018

> <IC50[nM]>
3.8

> <s_m_Source_Path>
/projects/mai/users/kmzp800_harry/pmx_colab/docking_jobs/syk

> <s_m_Source_File>
tnks2_lig.sdf

> <i_m_Source_File_Index>
31

> <s_m_job_name>
glide-dock_SP_tnks2_core_const

> <r_i_docking_score>
-7.14225084612732

> <r_i_glide_gscore>
-7.14225084612732

> <r_i_glide_emodel>
-48.2433639581995

$$$$
CHEMBL3265009
                    3D
 Schrodinger Suite 2021-4.
 51 54  0  0  1  0            999 V2000
   -4.5955   -3.0575   15.6263 C   0  0  0  0  0  0
   -3.9604   -2.1142   14.7752 O   0  0  0  0  0  0
   -2.5910   -1.9727   14.8732 C   0  0  0  0  0  0
   -1.7720   -2.7983   15.6823 C   0  0  0  0  0  0
   -0.3881   -2.5669   15.7696 C   0  0  0  0  0  0
    0.2152   -1.5156   15.0535 C   0  0  0  0  0  0
    1.5923   -1.3245   15.2671 N   0  0  0  0  0  0
    2.5253   -0.4208   14.7306 C   0  0  0  0  0  0
    2.1958    0.3906   13.7586 N   0  0  0  0  0  0
    3.1255    1.2734   13.2441 C   0  0  0  0  0  0
    4.4351    1.2845   13.6693 C   0  0  0  0  0  0
    4.7629    0.4788   14.7155 N   0  0  0  0  0  0
    5.9065    0.3791   15.4842 C   0  0  0  0  0  0
    5.5972   -0.4947   16.4952 C   0  0  0  0  0  0
    4.3579   -1.0599   16.3205 N   0  0  0  0  0  0
    3.8305   -0.4140   15.2862 C   0  0  0  0  0  0
    2.6192    2.3582   12.3817 C   0  0  0  0  0  0
    3.3439    2.8046   11.2560 C   0  0  0  0  0  0
    2.9088    3.9195   10.5161 C   0  0  0  0  0  0
    1.7588    4.6378   10.9065 C   0  0  0  0  0  0
    1.3469    5.8469   10.0794 C   0  0  0  0  0  0
    1.0288    4.2109   12.0491 C   0  0  0  0  0  0
    1.4497    3.0589   12.7466 C   0  0  0  0  0  0
   -0.1734    4.9452   12.5665 C   0  0  0  0  0  0
   -1.2566    4.3809   12.7032 O   0  0  0  0  0  0
    0.0284    6.2134   12.9248 N   0  0  0  0  0  0
   -0.5985   -0.7144   14.2179 C   0  0  0  0  0  0
   -1.9972   -0.9302   14.1269 C   0  0  0  0  0  0
   -2.8399   -0.1484   13.3604 O   0  0  0  0  0  0
   -2.2622    0.8372   12.5132 C   0  0  0  0  0  0
   -5.6738   -3.0084   15.4773 H   0  0  0  0  0  0
   -4.2785   -4.0758   15.3985 H   0  0  0  0  0  0
   -4.3987   -2.8438   16.6781 H   0  0  0  0  0  0
   -2.1811   -3.6071   16.2696 H   0  0  0  0  0  0
    0.2070   -3.1960   16.4176 H   0  0  0  0  0  0
    1.9972   -1.9190   15.9794 H   0  0  0  0  0  0
    5.1810    1.9966   13.3328 H   0  0  0  0  0  0
    6.7682    0.9950   15.2761 H   0  0  0  0  0  0
    6.1162   -0.7709   17.3876 H   0  0  0  0  0  0
    4.2479    2.2932   10.9597 H   0  0  0  0  0  0
    3.4791    4.2347    9.6545 H   0  0  0  0  0  0
    1.8182    5.8291    9.0963 H   0  0  0  0  0  0
    0.2687    5.8727    9.9231 H   0  0  0  0  0  0
    1.6504    6.7672   10.5783 H   0  0  0  0  0  0
    0.9000    2.7458   13.6234 H   0  0  0  0  0  0
   -0.7216    6.7309   13.3532 H   0  0  0  0  0  0
    0.9500    6.6243   12.8578 H   0  0  0  0  0  0
   -0.1659    0.0997   13.6675 H   0  0  0  0  0  0
   -3.0472    1.3177   11.9297 H   0  0  0  0  0  0
   -1.7600    1.6141   13.0915 H   0  0  0  0  0  0
   -1.5559    0.3956   11.8083 H   0  0  0  0  0  0
  1  2  1  0  0  0
  1 31  1  0  0  0
  1 32  1  0  0  0
  1 33  1  0  0  0
  2  3  1  0  0  0
  3  4  2  0  0  0
  3 28  1  0  0  0
  4  5  1  0  0  0
  4 34  1  0  0  0
  5  6  2  0  0  0
  5 35  1  0  0  0
  6  7  1  0  0  0
  6 27  1  0  0  0
  7  8  1  0  0  0
  7 36  1  0  0  0
  8  9  2  0  0  0
  8 16  1  0  0  0
  9 10  1  0  0  0
 10 11  2  0  0  0
 10 17  1  0  0  0
 11 12  1  0  0  0
 11 37  1  0  0  0
 12 13  1  0  0  0
 12 16  1  0  0  0
 13 14  2  0  0  0
 13 38  1  0  0  0
 14 15  1  0  0  0
 14 39  1  0  0  0
 15 16  2  0  0  0
 17 18  2  0  0  0
 17 23  1  0  0  0
 18 19  1  0  0  0
 18 40  1  0  0  0
 19 20  2  0  0  0
 19 41  1  0  0  0
 20 21  1  0  0  0
 20 22  1  0  0  0
 21 42  1  0  0  0
 21 43  1  0  0  0
 21 44  1  0  0  0
 22 23  2  0  0  0
 22 24  1  0  0  0
 23 45  1  0  0  0
 24 25  2  0  0  0
 24 26  1  0  0  0
 26 46  1  0  0  0
 26 47  1  0  0  0
 27 28  2  0  0  0
 27 48  1  0  0  0
 28 29  1  0  0  0
 29 30  1  0  0  0
 30 49  1  0  0  0
 30 50  1  0  0  0
 30 51  1  0  0  0
M  END
> <s_m_entry_id>
1019

> <IC50[nM]>
28.3

> <s_m_Source_Path>
/projects/mai/users/kmzp800_harry/pmx_colab/docking_jobs/syk

> <s_m_Source_File>
tnks2_lig.sdf

> <i_m_Source_File_Index>
32

> <s_m_job_name>
glide-dock_SP_tnks2_core_const

> <r_i_docking_score>
-7.47943854790957

> <r_i_glide_gscore>
-7.47943854790957

> <r_i_glide_emodel>
-56.8258790125026

$$$$
CHEMBL3265029
                    3D
 Schrodinger Suite 2021-4.
 43 47  0  0  1  0            999 V2000
   -4.5652   -3.3180   15.0153 C   0  0  0  0  0  0
   -3.8980   -2.2969   14.2879 O   0  0  0  0  0  0
   -2.5560   -2.1040   14.5371 C   0  0  0  0  0  0
   -1.7900   -2.8748   15.4454 C   0  0  0  0  0  0
   -0.4278   -2.5854   15.6580 C   0  0  0  0  0  0
    0.2078   -1.5301   14.9714 C   0  0  0  0  0  0
    1.5632   -1.3005   15.2752 N   0  0  0  0  0  0
    2.5216   -0.4284   14.7293 C   0  0  0  0  0  0
    2.2056    0.3749   13.7487 N   0  0  0  0  0  0
    3.1371    1.2591   13.2416 C   0  0  0  0  0  0
    4.4401    1.2810   13.6839 C   0  0  0  0  0  0
    4.7647    0.4704   14.7216 N   0  0  0  0  0  0
    5.9084    0.3720   15.4869 C   0  0  0  0  0  0
    5.5956   -0.4930   16.5015 C   0  0  0  0  0  0
    4.3503   -1.0620   16.3282 N   0  0  0  0  0  0
    3.8248   -0.4195   15.2925 C   0  0  0  0  0  0
    2.6578    2.2431   12.2351 C   0  0  0  0  0  0
    3.5400    2.8010   11.2728 C   0  0  0  0  0  0
    3.0966    3.7241   10.3035 C   0  0  0  0  0  0
    1.7491    4.1412   10.2725 C   0  0  0  0  0  0
    0.9338    5.0147    9.4815 C   0  0  0  0  0  0
   -0.3077    5.0350    9.9057 N   0  0  0  0  0  0
   -0.3397    4.1960   10.9719 N   0  0  0  0  0  0
    0.8778    3.6034   11.2549 C   0  0  0  0  0  0
    1.3113    2.6772   12.2207 C   0  0  0  0  0  0
   -0.5589   -0.7748   14.0507 C   0  0  0  0  0  0
   -1.9199   -1.0615   13.8390 C   0  0  0  0  0  0
   -5.6151   -3.3415   14.7239 H   0  0  0  0  0  0
   -4.5256   -3.1335   16.0900 H   0  0  0  0  0  0
   -4.1424   -4.3007   14.8023 H   0  0  0  0  0  0
   -2.2241   -3.6866   16.0097 H   0  0  0  0  0  0
    0.1274   -3.1813   16.3699 H   0  0  0  0  0  0
    1.9403   -1.8827   16.0128 H   0  0  0  0  0  0
    5.1977    1.9781   13.3445 H   0  0  0  0  0  0
    6.7681    0.9913   15.2812 H   0  0  0  0  0  0
    6.1187   -0.7302   17.4027 H   0  0  0  0  0  0
    4.5757    2.4970   11.2498 H   0  0  0  0  0  0
    3.7915    4.1125    9.5743 H   0  0  0  0  0  0
    1.2179    5.6184    8.6321 H   0  0  0  0  0  0
   -1.1998    4.0540   11.4804 H   0  0  0  0  0  0
    0.6101    2.2988   12.9489 H   0  0  0  0  0  0
   -0.1476    0.0460   13.4909 H   0  0  0  0  0  0
   -2.4806   -0.4692   13.1316 H   0  0  0  0  0  0
  1  2  1  0  0  0
  1 28  1  0  0  0
  1 29  1  0  0  0
  1 30  1  0  0  0
  2  3  1  0  0  0
  3  4  2  0  0  0
  3 27  1  0  0  0
  4  5  1  0  0  0
  4 31  1  0  0  0
  5  6  2  0  0  0
  5 32  1  0  0  0
  6  7  1  0  0  0
  6 26  1  0  0  0
  7  8  1  0  0  0
  7 33  1  0  0  0
  8  9  2  0  0  0
  8 16  1  0  0  0
  9 10  1  0  0  0
 10 11  2  0  0  0
 10 17  1  0  0  0
 11 12  1  0  0  0
 11 34  1  0  0  0
 12 13  1  0  0  0
 12 16  1  0  0  0
 13 14  2  0  0  0
 13 35  1  0  0  0
 14 15  1  0  0  0
 14 36  1  0  0  0
 15 16  2  0  0  0
 17 18  2  0  0  0
 17 25  1  0  0  0
 18 19  1  0  0  0
 18 37  1  0  0  0
 19 20  2  0  0  0
 19 38  1  0  0  0
 20 21  1  0  0  0
 20 24  1  0  0  0
 21 22  2  0  0  0
 21 39  1  0  0  0
 22 23  1  0  0  0
 23 24  1  0  0  0
 23 40  1  0  0  0
 24 25  2  0  0  0
 25 41  1  0  0  0
 26 27  2  0  0  0
 26 42  1  0  0  0
 27 43  1  0  0  0
M  END
> <s_m_entry_id>
1020

> <IC50[nM]>
7

> <s_m_Source_Path>
/projects/mai/users/kmzp800_harry/pmx_colab/docking_jobs/syk

> <s_m_Source_File>
tnks2_lig.sdf

> <i_m_Source_File_Index>
33

> <s_m_job_name>
glide-dock_SP_tnks2_core_const

> <r_i_docking_score>
-6.93784229649299

> <r_i_glide_gscore>
-6.93784229649299

> <r_i_glide_emodel>
-43.0495817368595

$$$$
CHEMBL3265030_n
                    3D
 Schrodinger Suite 2021-4.
 52 57  0  0  1  0            999 V2000
   -6.2438   -3.8825   16.0698 C   0  0  0  0  0  0
   -5.7560   -2.7965   15.1153 C   0  0  0  0  0  0
   -6.9145   -2.2954   14.4743 O   0  0  0  0  0  0
   -4.8356   -1.7244   15.7034 C   0  0  0  0  0  0
   -4.0299   -1.8709   14.4981 N   0  0  0  0  0  0
   -4.6040   -3.1714   14.1768 C   0  0  0  0  0  0
   -2.6365   -1.8119   14.6754 C   0  0  0  0  0  0
   -1.9141   -0.8607   13.9274 C   0  0  0  0  0  0
   -0.5320   -0.6905   14.0809 C   0  0  0  0  0  0
    0.1968   -1.4576   15.0197 C   0  0  0  0  0  0
    1.5751   -1.3094   15.2731 N   0  0  0  0  0  0
    2.5216   -0.4233   14.7450 C   0  0  0  0  0  0
    2.1933    0.4017   13.7780 N   0  0  0  0  0  0
    3.1191    1.2714   13.2482 C   0  0  0  0  0  0
    4.4205    1.2951   13.6885 C   0  0  0  0  0  0
    4.7589    0.4819   14.7186 N   0  0  0  0  0  0
    5.9052    0.3783   15.4709 C   0  0  0  0  0  0
    5.6085   -0.4996   16.4864 C   0  0  0  0  0  0
    4.3691   -1.0672   16.3207 N   0  0  0  0  0  0
    3.8322   -0.4190   15.2899 C   0  0  0  0  0  0
    2.6374    2.2217   12.2149 C   0  0  0  0  0  0
    3.5030    2.6986   11.1953 C   0  0  0  0  0  0
    3.0521    3.5614   10.1761 C   0  0  0  0  0  0
    1.7137    4.0098   10.1602 C   0  0  0  0  0  0
    0.9031    4.8751    9.3482 C   0  0  0  0  0  0
   -0.3303    4.9484    9.8005 N   0  0  0  0  0  0
   -0.3561    4.1650   10.9011 N   0  0  0  0  0  0
    0.8569    3.5599   11.1955 C   0  0  0  0  0  0
    1.3065    2.6941   12.2152 C   0  0  0  0  0  0
   -0.5048   -2.4312   15.7611 C   0  0  0  0  0  0
   -1.8905   -2.6143   15.5764 C   0  0  0  0  0  0
   -5.4060   -4.3276   16.6136 H   0  0  0  0  0  0
   -6.7488   -4.6923   15.5435 H   0  0  0  0  0  0
   -6.9325   -3.4850   16.8152 H   0  0  0  0  0  0
   -7.3768   -3.0364   14.1093 H   0  0  0  0  0  0
   -5.2914   -0.7429   15.8054 H   0  0  0  0  0  0
   -4.3447   -2.0420   16.6228 H   0  0  0  0  0  0
   -4.0179   -4.0154   14.5333 H   0  0  0  0  0  0
   -4.8759   -3.2692   13.1285 H   0  0  0  0  0  0
   -2.4332   -0.2271   13.2276 H   0  0  0  0  0  0
   -0.0851    0.0572   13.4515 H   0  0  0  0  0  0
    1.9469   -1.9145   15.9902 H   0  0  0  0  0  0
    5.1852    1.9841   13.3300 H   0  0  0  0  0  0
    6.7669    0.9985   15.2548 H   0  0  0  0  0  0
    6.1883   -0.7350   17.3585 H   0  0  0  0  0  0
    4.5264    2.3715   11.1513 H   0  0  0  0  0  0
    3.7238    3.8923    9.3969 H   0  0  0  0  0  0
    1.1911    5.4459    8.4774 H   0  0  0  0  0  0
   -1.2054    4.0678   11.4321 H   0  0  0  0  0  0
    0.6157    2.3802   12.9899 H   0  0  0  0  0  0
    0.0211   -3.0433   16.4829 H   0  0  0  0  0  0
   -2.3903   -3.3644   16.1767 H   0  0  0  0  0  0
  1  2  1  0  0  0
  1 32  1  0  0  0
  1 33  1  0  0  0
  1 34  1  0  0  0
  2  3  1  0  0  0
  2  4  1  0  0  0
  2  6  1  0  0  0
  3 35  1  0  0  0
  4  5  1  0  0  0
  4 36  1  0  0  0
  4 37  1  0  0  0
  5  6  1  0  0  0
  5  7  1  0  0  0
  6 38  1  0  0  0
  6 39  1  0  0  0
  7  8  2  0  0  0
  7 31  1  0  0  0
  8  9  1  0  0  0
  8 40  1  0  0  0
  9 10  2  0  0  0
  9 41  1  0  0  0
 10 11  1  0  0  0
 10 30  1  0  0  0
 11 12  1  0  0  0
 11 42  1  0  0  0
 12 13  2  0  0  0
 12 20  1  0  0  0
 13 14  1  0  0  0
 14 15  2  0  0  0
 14 21  1  0  0  0
 15 16  1  0  0  0
 15 43  1  0  0  0
 16 17  1  0  0  0
 16 20  1  0  0  0
 17 18  2  0  0  0
 17 44  1  0  0  0
 18 19  1  0  0  0
 18 45  1  0  0  0
 19 20  2  0  0  0
 21 22  2  0  0  0
 21 29  1  0  0  0
 22 23  1  0  0  0
 22 46  1  0  0  0
 23 24  2  0  0  0
 23 47  1  0  0  0
 24 25  1  0  0  0
 24 28  1  0  0  0
 25 26  2  0  0  0
 25 48  1  0  0  0
 26 27  1  0  0  0
 27 28  1  0  0  0
 27 49  1  0  0  0
 28 29  2  0  0  0
 29 50  1  0  0  0
 30 31  2  0  0  0
 30 51  1  0  0  0
 31 52  1  0  0  0
M  END
> <s_m_entry_id>
1021

> <IC50[nM]>
3.9

> <s_m_Source_Path>
/projects/mai/users/kmzp800_harry/pmx_colab/docking_jobs/syk

> <s_m_Source_File>
tnks2_lig.sdf

> <i_m_Source_File_Index>
34

> <s_m_job_name>
glide-dock_SP_tnks2_core_const

> <r_i_docking_score>
-6.9333975804538

> <r_i_glide_gscore>
-6.9333975804538

> <r_i_glide_emodel>
-47.3427239190131

$$$$
CHEMBL3264994
                    3D
 Schrodinger Suite 2021-4.
 64 68  0  0  1  0            999 V2000
   -4.7798   -1.8122   15.2799 C   0  0  0  0  0  0
   -3.9209   -2.7437   14.4060 C   0  0  0  0  0  0
   -4.2361   -4.2043   14.8014 C   0  0  0  0  0  0
   -4.3032   -2.5855   12.9166 C   0  0  0  0  0  0
   -2.4462   -2.3724   14.6224 C   0  0  0  0  0  0
   -1.5876   -3.1640   15.4193 C   0  0  0  0  0  0
   -0.2506   -2.7861   15.6213 C   0  0  0  0  0  0
    0.2678   -1.6159   15.0341 C   0  0  0  0  0  0
    1.6071   -1.3194   15.3122 N   0  0  0  0  0  0
    2.5286   -0.4391   14.7278 C   0  0  0  0  0  0
    2.2022    0.3708   13.7674 N   0  0  0  0  0  0
    3.1347    1.2491   13.2520 C   0  0  0  0  0  0
    4.4386    1.2686   13.6856 C   0  0  0  0  0  0
    4.7597    0.4610   14.7253 N   0  0  0  0  0  0
    5.9019    0.3711   15.4888 C   0  0  0  0  0  0
    5.5909   -0.4941   16.5013 C   0  0  0  0  0  0
    4.3493   -1.0749   16.3391 N   0  0  0  0  0  0
    3.8231   -0.4262   15.3005 C   0  0  0  0  0  0
    2.6718    2.2338   12.2487 C   0  0  0  0  0  0
    3.5227    2.6474   11.1951 C   0  0  0  0  0  0
    3.0974    3.5861   10.2378 C   0  0  0  0  0  0
    1.8154    4.1510   10.3343 C   0  0  0  0  0  0
    0.9596    3.7757   11.3943 C   0  0  0  0  0  0
   -0.2987    4.3932   11.5890 N   0  0  0  0  0  0
   -1.1767    4.7650   10.6412 C   0  0  0  0  0  0
   -1.0575    4.5078    9.4426 O   0  0  0  0  0  0
   -2.3269    5.5893   11.1412 C   0  0  0  0  0  0
   -2.8764    5.3753   12.4260 C   0  0  0  0  0  0
   -3.9153    6.2001   12.9005 C   0  0  0  0  0  0
   -4.4231    7.2503   12.1013 C   0  0  0  0  0  0
   -3.9061    7.4302   10.8002 C   0  0  0  0  0  0
   -2.8713    6.6026   10.3216 C   0  0  0  0  0  0
   -5.4815    8.1739   12.6378 C   0  0  0  0  0  0
   -5.8822    8.0031   13.8096 O   0  0  0  0  0  0
   -5.9154    9.0980   11.9162 O   0  5  0  0  0  0
    1.3927    2.8270   12.3433 C   0  0  0  0  0  0
   -0.5848   -0.8091   14.2511 C   0  0  0  0  0  0
   -1.9249   -1.1857   14.0542 C   0  0  0  0  0  0
   -5.8455   -2.0012   15.1459 H   0  0  0  0  0  0
   -4.5873   -0.7657   15.0488 H   0  0  0  0  0  0
   -4.5531   -1.9493   16.3379 H   0  0  0  0  0  0
   -3.6060   -4.9101   14.2586 H   0  0  0  0  0  0
   -4.0968   -4.3787   15.8691 H   0  0  0  0  0  0
   -5.2737   -4.4594   14.5824 H   0  0  0  0  0  0
   -3.6552   -3.1901   12.2839 H   0  0  0  0  0  0
   -5.3294   -2.9025   12.7343 H   0  0  0  0  0  0
   -4.2199   -1.5603   12.5637 H   0  0  0  0  0  0
   -1.9278   -4.0639   15.9066 H   0  0  0  0  0  0
    0.3776   -3.4069   16.2453 H   0  0  0  0  0  0
    2.0301   -1.9035   16.0231 H   0  0  0  0  0  0
    5.1954    1.9623   13.3369 H   0  0  0  0  0  0
    6.7612    0.9897   15.2810 H   0  0  0  0  0  0
    6.1178   -0.7376   17.3989 H   0  0  0  0  0  0
    4.5108    2.2228   11.0986 H   0  0  0  0  0  0
    3.7578    3.8785    9.4353 H   0  0  0  0  0  0
    1.5118    4.8913    9.6085 H   0  0  0  0  0  0
   -0.5546    4.5892   12.5445 H   0  0  0  0  0  0
   -2.4961    4.5941   13.0685 H   0  0  0  0  0  0
   -4.3019    6.0379   13.8970 H   0  0  0  0  0  0
   -4.2897    8.2172   10.1677 H   0  0  0  0  0  0
   -2.4765    6.7709    9.3291 H   0  0  0  0  0  0
    0.7424    2.5557   13.1625 H   0  0  0  0  0  0
   -0.2476    0.1125   13.8059 H   0  0  0  0  0  0
   -2.5444   -0.5350   13.4598 H   0  0  0  0  0  0
  1  2  1  0  0  0
  1 39  1  0  0  0
  1 40  1  0  0  0
  1 41  1  0  0  0
  2  3  1  0  0  0
  2  4  1  0  0  0
  2  5  1  0  0  0
  3 42  1  0  0  0
  3 43  1  0  0  0
  3 44  1  0  0  0
  4 45  1  0  0  0
  4 46  1  0  0  0
  4 47  1  0  0  0
  5  6  2  0  0  0
  5 38  1  0  0  0
  6  7  1  0  0  0
  6 48  1  0  0  0
  7  8  2  0  0  0
  7 49  1  0  0  0
  8  9  1  0  0  0
  8 37  1  0  0  0
  9 10  1  0  0  0
  9 50  1  0  0  0
 10 11  2  0  0  0
 10 18  1  0  0  0
 11 12  1  0  0  0
 12 13  2  0  0  0
 12 19  1  0  0  0
 13 14  1  0  0  0
 13 51  1  0  0  0
 14 15  1  0  0  0
 14 18  1  0  0  0
 15 16  2  0  0  0
 15 52  1  0  0  0
 16 17  1  0  0  0
 16 53  1  0  0  0
 17 18  2  0  0  0
 19 20  2  0  0  0
 19 36  1  0  0  0
 20 21  1  0  0  0
 20 54  1  0  0  0
 21 22  2  0  0  0
 21 55  1  0  0  0
 22 23  1  0  0  0
 22 56  1  0  0  0
 23 24  1  0  0  0
 23 36  2  0  0  0
 24 25  1  0  0  0
 24 57  1  0  0  0
 25 26  2  0  0  0
 25 27  1  0  0  0
 27 28  2  0  0  0
 27 32  1  0  0  0
 28 29  1  0  0  0
 28 58  1  0  0  0
 29 30  2  0  0  0
 29 59  1  0  0  0
 30 31  1  0  0  0
 30 33  1  0  0  0
 31 32  2  0  0  0
 31 60  1  0  0  0
 32 61  1  0  0  0
 33 34  2  0  0  0
 33 35  1  0  0  0
 36 62  1  0  0  0
 37 38  2  0  0  0
 37 63  1  0  0  0
 38 64  1  0  0  0
M  CHG  1  35  -1
M  END
> <s_m_entry_id>
1788

> <IC50[nM]>
65

> <s_m_Source_Path>
/projects/mai/users/kmzp800_harry/pmx_colab/docking_jobs/syk

> <s_m_Source_File>
tnks2_lig.sdf

> <i_m_Source_File_Index>
35

> <s_m_job_name>
glide-dock_SP_syk_single_compound_core_const_5

> <r_i_docking_score>
-7.70114657311265

> <r_i_glide_gscore>
-7.70114657311265

> <r_i_glide_emodel>
-58.7143915453769

$$$$
CHEMBL3265000
                    3D
 Schrodinger Suite 2021-4.
 67 71  0  0  1  0            999 V2000
   -4.4703   -3.4409   14.2445 C   0  0  0  0  0  0
   -3.8750   -2.1816   13.9800 O   0  0  0  0  0  0
   -2.5361   -2.0247   14.2759 C   0  0  0  0  0  0
   -1.7528   -2.9967   14.9493 C   0  0  0  0  0  0
   -0.3978   -2.7488   15.2443 C   0  0  0  0  0  0
    0.2102   -1.5335   14.8719 C   0  0  0  0  0  0
    1.5554   -1.3253   15.2419 N   0  0  0  0  0  0
    2.5199   -0.4341   14.7297 C   0  0  0  0  0  0
    2.2010    0.3815   13.7594 N   0  0  0  0  0  0
    3.1219    1.2709   13.2503 C   0  0  0  0  0  0
    4.4271    1.2871   13.6826 C   0  0  0  0  0  0
    4.7548    0.4790   14.7242 N   0  0  0  0  0  0
    5.9083    0.3692   15.4757 C   0  0  0  0  0  0
    5.5939   -0.4935   16.4999 C   0  0  0  0  0  0
    4.3535   -1.0572   16.3283 N   0  0  0  0  0  0
    3.8236   -0.4179   15.2906 C   0  0  0  0  0  0
    2.6192    2.2412   12.2450 C   0  0  0  0  0  0
    3.4882    2.8041   11.2767 C   0  0  0  0  0  0
    3.0078    3.6876   10.2911 C   0  0  0  0  0  0
    1.6425    4.0136   10.2448 C   0  0  0  0  0  0
    0.7569    3.4865   11.2060 C   0  0  0  0  0  0
    1.2572    2.6328   12.2174 C   0  0  0  0  0  0
   -0.7139    3.7278   11.0754 C   0  0  0  0  0  0
   -1.3088    3.2613   10.1040 O   0  0  0  0  0  0
   -1.2690    4.4086   12.0964 N   0  0  0  0  0  0
   -2.6091    4.8747   12.2453 C   0  0  0  0  0  0
   -2.9063    5.6040   13.4143 C   0  0  0  0  0  0
   -4.1814    6.1736   13.6043 C   0  0  0  0  0  0
   -5.1873    6.0326   12.6235 C   0  0  0  0  0  0
   -4.9125    5.2558   11.4788 C   0  0  0  0  0  0
   -3.6406    4.6830   11.2908 C   0  0  0  0  0  0
   -6.5539    6.6333   12.7948 C   0  0  0  0  0  0
   -7.5089    6.0122   12.3278 O   0  0  0  0  0  0
   -6.5668    7.8575   13.3853 N   0  5  0  0  0  0
   -7.9368    8.7263   13.4808 S   0  0  0  0  0  0
   -8.6823    8.8286   12.2175 O   0  0  0  0  0  0
   -7.7346    9.9846   14.2116 O   0  0  0  0  0  0
   -8.9329    7.6868   14.6039 C   0  0  0  0  0  0
   -0.5772   -0.5768   14.1860 C   0  0  0  0  0  0
   -1.9426   -0.8053   13.8905 C   0  0  0  0  0  0
   -2.7560    0.1144   13.2600 O   0  0  0  0  0  0
   -2.1530    1.2779   12.7220 C   0  0  0  0  0  0
   -5.5059   -3.4216   13.9033 H   0  0  0  0  0  0
   -3.9598   -4.2401   13.7040 H   0  0  0  0  0  0
   -4.4748   -3.6692   15.3117 H   0  0  0  0  0  0
   -2.1757   -3.9341   15.2763 H   0  0  0  0  0  0
    0.1726   -3.5056   15.7639 H   0  0  0  0  0  0
    1.9236   -1.9721   15.9284 H   0  0  0  0  0  0
    5.1928    1.9731   13.3413 H   0  0  0  0  0  0
    6.7802    0.9750   15.2591 H   0  0  0  0  0  0
    6.1107   -0.7659   17.3913 H   0  0  0  0  0  0
    4.5340    2.5337   11.2513 H   0  0  0  0  0  0
    3.6790    4.0888    9.5478 H   0  0  0  0  0  0
    1.2698    4.6546    9.4591 H   0  0  0  0  0  0
    0.5780    2.2296   12.9490 H   0  0  0  0  0  0
   -0.6275    4.6972   12.8233 H   0  0  0  0  0  0
   -2.1465    5.7601   14.1669 H   0  0  0  0  0  0
   -4.3701    6.7491   14.4966 H   0  0  0  0  0  0
   -5.6782    5.0992   10.7320 H   0  0  0  0  0  0
   -3.4917    4.1262   10.3818 H   0  0  0  0  0  0
   -9.9258    8.1154   14.6541 H   0  0  0  0  0  0
   -8.4278    7.6706   15.5698 H   0  0  0  0  0  0
   -9.0014    6.6752   14.2125 H   0  0  0  0  0  0
   -0.1472    0.3621   13.9052 H   0  0  0  0  0  0
   -2.9090    1.8705   12.2071 H   0  0  0  0  0  0
   -1.7156    1.9094   13.4939 H   0  0  0  0  0  0
   -1.3805    1.0280   11.9924 H   0  0  0  0  0  0
  1  2  1  0  0  0
  1 43  1  0  0  0
  1 44  1  0  0  0
  1 45  1  0  0  0
  2  3  1  0  0  0
  3  4  2  0  0  0
  3 40  1  0  0  0
  4  5  1  0  0  0
  4 46  1  0  0  0
  5  6  2  0  0  0
  5 47  1  0  0  0
  6  7  1  0  0  0
  6 39  1  0  0  0
  7  8  1  0  0  0
  7 48  1  0  0  0
  8  9  2  0  0  0
  8 16  1  0  0  0
  9 10  1  0  0  0
 10 11  2  0  0  0
 10 17  1  0  0  0
 11 12  1  0  0  0
 11 49  1  0  0  0
 12 13  1  0  0  0
 12 16  1  0  0  0
 13 14  2  0  0  0
 13 50  1  0  0  0
 14 15  1  0  0  0
 14 51  1  0  0  0
 15 16  2  0  0  0
 17 18  2  0  0  0
 17 22  1  0  0  0
 18 19  1  0  0  0
 18 52  1  0  0  0
 19 20  2  0  0  0
 19 53  1  0  0  0
 20 21  1  0  0  0
 20 54  1  0  0  0
 21 22  2  0  0  0
 21 23  1  0  0  0
 22 55  1  0  0  0
 23 24  2  0  0  0
 23 25  1  0  0  0
 25 26  1  0  0  0
 25 56  1  0  0  0
 26 27  2  0  0  0
 26 31  1  0  0  0
 27 28  1  0  0  0
 27 57  1  0  0  0
 28 29  2  0  0  0
 28 58  1  0  0  0
 29 30  1  0  0  0
 29 32  1  0  0  0
 30 31  2  0  0  0
 30 59  1  0  0  0
 31 60  1  0  0  0
 32 33  2  0  0  0
 32 34  1  0  0  0
 34 35  1  0  0  0
 35 36  2  0  0  0
 35 37  2  0  0  0
 35 38  1  0  0  0
 38 61  1  0  0  0
 38 62  1  0  0  0
 38 63  1  0  0  0
 39 40  2  0  0  0
 39 64  1  0  0  0
 40 41  1  0  0  0
 41 42  1  0  0  0
 42 65  1  0  0  0
 42 66  1  0  0  0
 42 67  1  0  0  0
M  CHG  1  34  -1
M  END
> <s_m_entry_id>
1022

> <IC50[nM]>
2.2

> <s_m_Source_Path>
/projects/mai/users/kmzp800_harry/pmx_colab/docking_jobs/syk

> <s_m_Source_File>
tnks2_lig.sdf

> <i_m_Source_File_Index>
36

> <s_m_job_name>
glide-dock_SP_tnks2_core_const

> <r_i_docking_score>
-8.92996746544538

> <r_i_glide_gscore>
-8.92996746544538

> <r_i_glide_emodel>
-86.3366133551159

$$$$
CHEMBL3265034
                    3D
 Schrodinger Suite 2021-4.
 53 58  0  0  1  0            999 V2000
   -6.3060   -2.2724   15.1795 C   0  0  0  0  0  0
   -4.8298   -1.9181   15.4196 C   0  0  0  0  0  0
   -3.9231   -2.7020   14.4567 C   0  0  0  0  0  0
   -4.4265   -2.5474   13.0076 C   0  0  0  0  0  0
   -5.9265   -2.8589   12.9138 C   0  0  0  0  0  0
   -6.6403   -2.0179   13.8167 O   0  0  0  0  0  0
   -2.4604   -2.3182   14.6329 C   0  0  0  0  0  0
   -1.9336   -1.1447   14.0510 C   0  0  0  0  0  0
   -0.5828   -0.7984   14.2343 C   0  0  0  0  0  0
    0.2633   -1.6132   15.0194 C   0  0  0  0  0  0
    1.6087   -1.3292   15.2946 N   0  0  0  0  0  0
    2.5295   -0.4342   14.7276 C   0  0  0  0  0  0
    2.2007    0.3662   13.7500 N   0  0  0  0  0  0
    3.1306    1.2604   13.2518 C   0  0  0  0  0  0
    4.4364    1.2861   13.6913 C   0  0  0  0  0  0
    4.7690    0.4706   14.7242 N   0  0  0  0  0  0
    5.9093    0.3748   15.4979 C   0  0  0  0  0  0
    5.5925   -0.4921   16.5118 C   0  0  0  0  0  0
    4.3527   -1.0654   16.3269 N   0  0  0  0  0  0
    3.8308   -0.4201   15.2910 C   0  0  0  0  0  0
    2.6436    2.2466   12.2540 C   0  0  0  0  0  0
    3.5154    2.8039   11.2829 C   0  0  0  0  0  0
    3.0615    3.7269   10.3188 C   0  0  0  0  0  0
    1.7133    4.1432   10.3017 C   0  0  0  0  0  0
    0.8873    5.0148    9.5189 C   0  0  0  0  0  0
   -0.3496    5.0327    9.9562 N   0  0  0  0  0  0
   -0.3686    4.1945   11.0237 N   0  0  0  0  0  0
    0.8528    3.6047   11.2938 C   0  0  0  0  0  0
    1.2971    2.6798   12.2548 C   0  0  0  0  0  0
   -0.2720   -2.7746   15.6140 C   0  0  0  0  0  0
   -1.6188   -3.1294   15.4204 C   0  0  0  0  0  0
   -6.5070   -3.3150   15.4327 H   0  0  0  0  0  0
   -6.9438   -1.6640   15.8204 H   0  0  0  0  0  0
   -4.5563   -2.1350   16.4535 H   0  0  0  0  0  0
   -4.6874   -0.8463   15.2813 H   0  0  0  0  0  0
   -4.0131   -3.7592   14.7125 H   0  0  0  0  0  0
   -4.2736   -1.5336   12.6414 H   0  0  0  0  0  0
   -3.8621   -3.1985   12.3396 H   0  0  0  0  0  0
   -6.1255   -3.9091   13.1360 H   0  0  0  0  0  0
   -6.2821   -2.6756   11.8996 H   0  0  0  0  0  0
   -2.5544   -0.4895   13.4615 H   0  0  0  0  0  0
   -0.2331    0.1137   13.7809 H   0  0  0  0  0  0
    2.0291   -1.9163   16.0040 H   0  0  0  0  0  0
    5.1885    1.9893   13.3524 H   0  0  0  0  0  0
    6.7655    1.0013   15.3016 H   0  0  0  0  0  0
    6.0991   -0.7346   17.4251 H   0  0  0  0  0  0
    4.5501    2.4976   11.2480 H   0  0  0  0  0  0
    3.7495    4.1148    9.5831 H   0  0  0  0  0  0
    1.1601    5.6178    8.6652 H   0  0  0  0  0  0
   -1.2232    4.0504   11.5412 H   0  0  0  0  0  0
    0.6042    2.2991   12.9892 H   0  0  0  0  0  0
    0.3507   -3.4042   16.2355 H   0  0  0  0  0  0
   -2.0014   -4.0204   15.8973 H   0  0  0  0  0  0
  1  2  1  0  0  0
  1  6  1  0  0  0
  1 32  1  0  0  0
  1 33  1  0  0  0
  2  3  1  0  0  0
  2 34  1  0  0  0
  2 35  1  0  0  0
  3  4  1  0  0  0
  3  7  1  0  0  0
  3 36  1  0  0  0
  4  5  1  0  0  0
  4 37  1  0  0  0
  4 38  1  0  0  0
  5  6  1  0  0  0
  5 39  1  0  0  0
  5 40  1  0  0  0
  7  8  2  0  0  0
  7 31  1  0  0  0
  8  9  1  0  0  0
  8 41  1  0  0  0
  9 10  2  0  0  0
  9 42  1  0  0  0
 10 11  1  0  0  0
 10 30  1  0  0  0
 11 12  1  0  0  0
 11 43  1  0  0  0
 12 13  2  0  0  0
 12 20  1  0  0  0
 13 14  1  0  0  0
 14 15  2  0  0  0
 14 21  1  0  0  0
 15 16  1  0  0  0
 15 44  1  0  0  0
 16 17  1  0  0  0
 16 20  1  0  0  0
 17 18  2  0  0  0
 17 45  1  0  0  0
 18 19  1  0  0  0
 18 46  1  0  0  0
 19 20  2  0  0  0
 21 22  2  0  0  0
 21 29  1  0  0  0
 22 23  1  0  0  0
 22 47  1  0  0  0
 23 24  2  0  0  0
 23 48  1  0  0  0
 24 25  1  0  0  0
 24 28  1  0  0  0
 25 26  2  0  0  0
 25 49  1  0  0  0
 26 27  1  0  0  0
 27 28  1  0  0  0
 27 50  1  0  0  0
 28 29  2  0  0  0
 29 51  1  0  0  0
 30 31  2  0  0  0
 30 52  1  0  0  0
 31 53  1  0  0  0
M  END
> <s_m_entry_id>
1023

> <IC50[nM]>
3.8

> <s_m_Source_Path>
/projects/mai/users/kmzp800_harry/pmx_colab/docking_jobs/syk

> <s_m_Source_File>
tnks2_lig.sdf

> <i_m_Source_File_Index>
37

> <s_m_job_name>
glide-dock_SP_tnks2_core_const

> <r_i_docking_score>
-7.17687467441454

> <r_i_glide_gscore>
-7.17687467441454

> <r_i_glide_emodel>
-50.0800267960931

$$$$
CHEMBL3265026
                    3D
 Schrodinger Suite 2021-4.
 51 55  0  0  1  0            999 V2000
   -4.5034   -3.4236   14.7524 C   0  0  0  0  0  0
   -3.8885   -2.2465   14.2461 O   0  0  0  0  0  0
   -2.5484   -2.0511   14.5101 C   0  0  0  0  0  0
   -1.7508   -2.9533   15.2558 C   0  0  0  0  0  0
   -0.3889   -2.6829   15.4818 C   0  0  0  0  0  0
    0.2144   -1.5220   14.9613 C   0  0  0  0  0  0
    1.5733   -1.3122   15.2618 N   0  0  0  0  0  0
    2.5263   -0.4302   14.7282 C   0  0  0  0  0  0
    2.2024    0.3807   13.7550 N   0  0  0  0  0  0
    3.1226    1.2719   13.2457 C   0  0  0  0  0  0
    4.4301    1.2999   13.6845 C   0  0  0  0  0  0
    4.7616    0.4796   14.7163 N   0  0  0  0  0  0
    5.9100    0.3711   15.4763 C   0  0  0  0  0  0
    5.6066   -0.4975   16.4895 C   0  0  0  0  0  0
    4.3599   -1.0626   16.3219 N   0  0  0  0  0  0
    3.8280   -0.4168   15.2909 C   0  0  0  0  0  0
    2.6353    2.2426   12.2303 C   0  0  0  0  0  0
    3.4987    2.7658   11.2359 C   0  0  0  0  0  0
    3.0251    3.6376   10.2348 C   0  0  0  0  0  0
    1.6739    4.0214   10.2099 C   0  0  0  0  0  0
    1.2321    4.8356    9.1905 O   0  0  0  0  0  0
   -0.1858    4.8719    9.0065 C   0  0  0  0  0  0
   -0.8908    5.0479   10.3608 C   0  0  0  0  0  0
   -0.5347    3.9699   11.2725 N   0  0  0  0  0  0
    0.8088    3.5714   11.2374 C   0  0  0  0  0  0
    1.2946    2.6950   12.2295 C   0  0  0  0  0  0
   -0.5850   -0.6274   14.2108 C   0  0  0  0  0  0
   -1.9582   -0.8819   13.9772 C   0  0  0  0  0  0
   -2.7781   -0.0374   13.2503 O   0  0  0  0  0  0
   -2.1763    1.0291   12.5294 C   0  0  0  0  0  0
   -5.5563   -3.4343   14.4653 H   0  0  0  0  0  0
   -4.4606   -3.4624   15.8451 H   0  0  0  0  0  0
   -4.0466   -4.3254   14.3405 H   0  0  0  0  0  0
   -2.1595   -3.8598   15.6726 H   0  0  0  0  0  0
    0.1941   -3.3847   16.0611 H   0  0  0  0  0  0
    1.9685   -1.9503   15.9429 H   0  0  0  0  0  0
    5.1921    1.9883   13.3305 H   0  0  0  0  0  0
    6.7760    0.9791   15.2683 H   0  0  0  0  0  0
    6.1392   -0.7629   17.3791 H   0  0  0  0  0  0
    4.5360    2.4699   11.2064 H   0  0  0  0  0  0
    3.6934    3.9925    9.4641 H   0  0  0  0  0  0
   -0.4332    5.6993    8.3448 H   0  0  0  0  0  0
   -0.5114    3.9605    8.5105 H   0  0  0  0  0  0
   -0.6037    6.0046   10.8084 H   0  0  0  0  0  0
   -1.9746    5.0562   10.2208 H   0  0  0  0  0  0
   -1.0402    3.9161   12.1472 H   0  0  0  0  0  0
    0.6254    2.3550   13.0016 H   0  0  0  0  0  0
   -0.1579    0.2805   13.8295 H   0  0  0  0  0  0
   -2.9349    1.5289   11.9280 H   0  0  0  0  0  0
   -1.7525    1.7724   13.2075 H   0  0  0  0  0  0
   -1.4041    0.6702   11.8468 H   0  0  0  0  0  0
  1  2  1  0  0  0
  1 31  1  0  0  0
  1 32  1  0  0  0
  1 33  1  0  0  0
  2  3  1  0  0  0
  3  4  2  0  0  0
  3 28  1  0  0  0
  4  5  1  0  0  0
  4 34  1  0  0  0
  5  6  2  0  0  0
  5 35  1  0  0  0
  6  7  1  0  0  0
  6 27  1  0  0  0
  7  8  1  0  0  0
  7 36  1  0  0  0
  8  9  2  0  0  0
  8 16  1  0  0  0
  9 10  1  0  0  0
 10 11  2  0  0  0
 10 17  1  0  0  0
 11 12  1  0  0  0
 11 37  1  0  0  0
 12 13  1  0  0  0
 12 16  1  0  0  0
 13 14  2  0  0  0
 13 38  1  0  0  0
 14 15  1  0  0  0
 14 39  1  0  0  0
 15 16  2  0  0  0
 17 18  2  0  0  0
 17 26  1  0  0  0
 18 19  1  0  0  0
 18 40  1  0  0  0
 19 20  2  0  0  0
 19 41  1  0  0  0
 20 21  1  0  0  0
 20 25  1  0  0  0
 21 22  1  0  0  0
 22 23  1  0  0  0
 22 42  1  0  0  0
 22 43  1  0  0  0
 23 24  1  0  0  0
 23 44  1  0  0  0
 23 45  1  0  0  0
 24 25  1  0  0  0
 24 46  1  0  0  0
 25 26  2  0  0  0
 26 47  1  0  0  0
 27 28  2  0  0  0
 27 48  1  0  0  0
 28 29  1  0  0  0
 29 30  1  0  0  0
 30 49  1  0  0  0
 30 50  1  0  0  0
 30 51  1  0  0  0
M  END
> <s_m_entry_id>
1024

> <IC50[nM]>
4.7

> <s_m_Source_Path>
/projects/mai/users/kmzp800_harry/pmx_colab/docking_jobs/syk

> <s_m_Source_File>
tnks2_lig.sdf

> <i_m_Source_File_Index>
38

> <s_m_job_name>
glide-dock_SP_tnks2_core_const

> <r_i_docking_score>
-7.26368339850026

> <r_i_glide_gscore>
-7.26368339850026

> <r_i_glide_emodel>
-50.324264105167

$$$$
CHEMBL3265033
                    3D
 Schrodinger Suite 2021-4.
 54 59  0  0  1  0            999 V2000
   -7.2352   -1.5960   13.5239 O   0  0  0  0  0  0
   -6.7843   -2.9948   13.5844 S   0  0  0  0  0  0
   -7.7196   -4.0897   13.2922 O   0  0  0  0  0  0
   -6.0246   -3.2865   15.2330 C   0  0  0  0  0  0
   -4.8164   -2.3629   15.4644 C   0  0  0  0  0  0
   -3.9071   -2.2963   14.3163 N   0  0  0  0  0  0
   -4.0222   -3.2897   13.2558 C   0  0  0  0  0  0
   -5.3284   -3.1454   12.4697 C   0  0  0  0  0  0
   -2.5652   -2.0210   14.6100 C   0  0  0  0  0  0
   -1.8136   -2.8089   15.5094 C   0  0  0  0  0  0
   -0.4454   -2.5425   15.7108 C   0  0  0  0  0  0
    0.1976   -1.4935   15.0192 C   0  0  0  0  0  0
    1.5646   -1.3005   15.2876 N   0  0  0  0  0  0
    2.5214   -0.4362   14.7285 C   0  0  0  0  0  0
    2.2000    0.3644   13.7568 N   0  0  0  0  0  0
    3.1254    1.2498   13.2622 C   0  0  0  0  0  0
    4.4332    1.2757   13.6876 C   0  0  0  0  0  0
    4.7662    0.4680   14.7239 N   0  0  0  0  0  0
    5.9099    0.3765   15.4892 C   0  0  0  0  0  0
    5.6007   -0.4929   16.5012 C   0  0  0  0  0  0
    4.3655   -1.0747   16.3226 N   0  0  0  0  0  0
    3.8289   -0.4246   15.2963 C   0  0  0  0  0  0
    2.6215    2.2820   12.3329 C   0  0  0  0  0  0
    1.3232    2.8295   12.4809 C   0  0  0  0  0  0
    0.8690    3.8791   11.6552 C   0  0  0  0  0  0
    1.7045    4.4166   10.6515 C   0  0  0  0  0  0
    1.6413    5.4554    9.6667 C   0  0  0  0  0  0
    2.7495    5.5281    8.9677 N   0  0  0  0  0  0
    3.5515    4.5509    9.4570 N   0  0  0  0  0  0
    2.9938    3.8441   10.5019 C   0  0  0  0  0  0
    3.4553    2.8024   11.3187 C   0  0  0  0  0  0
   -0.5685   -0.7080   14.1232 C   0  0  0  0  0  0
   -1.9322   -0.9737   13.9180 C   0  0  0  0  0  0
   -6.7875   -3.1325   15.9960 H   0  0  0  0  0  0
   -5.7302   -4.3342   15.2862 H   0  0  0  0  0  0
   -4.2986   -2.6649   16.3756 H   0  0  0  0  0  0
   -5.1766   -1.3497   15.6474 H   0  0  0  0  0  0
   -3.1849   -3.1955   12.5629 H   0  0  0  0  0  0
   -3.9515   -4.2861   13.6940 H   0  0  0  0  0  0
   -5.2966   -2.2681   11.8249 H   0  0  0  0  0  0
   -5.4844   -4.0061   11.8208 H   0  0  0  0  0  0
   -2.2695   -3.6329   16.0405 H   0  0  0  0  0  0
    0.1109   -3.1586   16.4039 H   0  0  0  0  0  0
    1.9461   -1.8888   16.0177 H   0  0  0  0  0  0
    5.1773    1.9883   13.3489 H   0  0  0  0  0  0
    6.7652    1.0029   15.2857 H   0  0  0  0  0  0
    6.1252   -0.7359   17.4000 H   0  0  0  0  0  0
    0.6723    2.4621   13.2612 H   0  0  0  0  0  0
   -0.1170    4.2930   11.8063 H   0  0  0  0  0  0
    0.8327    6.1407    9.4581 H   0  0  0  0  0  0
    4.4643    4.3917    9.0610 H   0  0  0  0  0  0
    4.4494    2.4089   11.1689 H   0  0  0  0  0  0
   -0.1543    0.1128   13.5654 H   0  0  0  0  0  0
   -2.4859   -0.3761   13.2093 H   0  0  0  0  0  0
  1  2  2  0  0  0
  2  3  2  0  0  0
  2  4  1  0  0  0
  2  8  1  0  0  0
  4  5  1  0  0  0
  4 34  1  0  0  0
  4 35  1  0  0  0
  5  6  1  0  0  0
  5 36  1  0  0  0
  5 37  1  0  0  0
  6  7  1  0  0  0
  6  9  1  0  0  0
  7  8  1  0  0  0
  7 38  1  0  0  0
  7 39  1  0  0  0
  8 40  1  0  0  0
  8 41  1  0  0  0
  9 10  2  0  0  0
  9 33  1  0  0  0
 10 11  1  0  0  0
 10 42  1  0  0  0
 11 12  2  0  0  0
 11 43  1  0  0  0
 12 13  1  0  0  0
 12 32  1  0  0  0
 13 14  1  0  0  0
 13 44  1  0  0  0
 14 15  2  0  0  0
 14 22  1  0  0  0
 15 16  1  0  0  0
 16 17  2  0  0  0
 16 23  1  0  0  0
 17 18  1  0  0  0
 17 45  1  0  0  0
 18 19  1  0  0  0
 18 22  1  0  0  0
 19 20  2  0  0  0
 19 46  1  0  0  0
 20 21  1  0  0  0
 20 47  1  0  0  0
 21 22  2  0  0  0
 23 24  2  0  0  0
 23 31  1  0  0  0
 24 25  1  0  0  0
 24 48  1  0  0  0
 25 26  2  0  0  0
 25 49  1  0  0  0
 26 27  1  0  0  0
 26 30  1  0  0  0
 27 28  2  0  0  0
 27 50  1  0  0  0
 28 29  1  0  0  0
 29 30  1  0  0  0
 29 51  1  0  0  0
 30 31  2  0  0  0
 31 52  1  0  0  0
 32 33  2  0  0  0
 32 53  1  0  0  0
 33 54  1  0  0  0
M  END
> <s_m_entry_id>
1025

> <IC50[nM]>
2.1

> <s_m_Source_Path>
/projects/mai/users/kmzp800_harry/pmx_colab/docking_jobs/syk

> <s_m_Source_File>
tnks2_lig.sdf

> <i_m_Source_File_Index>
39

> <s_m_job_name>
glide-dock_SP_tnks2_core_const

> <r_i_docking_score>
-7.13138518702378

> <r_i_glide_gscore>
-7.13138518702378

> <r_i_glide_emodel>
-51.9093247389147

$$$$
CHEMBL3265011
                    3D
 Schrodinger Suite 2021-4.
 51 54  0  0  1  0            999 V2000
   -4.4792   -3.0424   16.1141 C   0  0  0  0  0  0
   -3.8969   -2.3407   15.0263 O   0  0  0  0  0  0
   -2.5278   -2.1733   15.0494 C   0  0  0  0  0  0
   -1.6539   -3.0094   15.7872 C   0  0  0  0  0  0
   -0.2741   -2.7440   15.8096 C   0  0  0  0  0  0
    0.2679   -1.6437   15.1162 C   0  0  0  0  0  0
    1.6460   -1.4148   15.2650 N   0  0  0  0  0  0
    2.5339   -0.4617   14.7349 C   0  0  0  0  0  0
    2.1883    0.3572   13.7701 N   0  0  0  0  0  0
    3.1150    1.2563   13.2646 C   0  0  0  0  0  0
    4.4197    1.2791   13.7205 C   0  0  0  0  0  0
    4.7613    0.4511   14.7480 N   0  0  0  0  0  0
    5.9061    0.3673   15.5245 C   0  0  0  0  0  0
    5.5922   -0.4999   16.5380 C   0  0  0  0  0  0
    4.3611   -1.0858   16.3379 N   0  0  0  0  0  0
    3.8356   -0.4323   15.3111 C   0  0  0  0  0  0
    2.5715    2.2793   12.3181 C   0  0  0  0  0  0
    1.2682    2.7923   12.5515 C   0  0  0  0  0  0
    0.6595    3.7281   11.6862 C   0  0  0  0  0  0
    1.3599    4.1871   10.5595 C   0  0  0  0  0  0
    2.6676    3.7393   10.3274 C   0  0  0  0  0  0
    3.2754    2.8004   11.1884 C   0  0  0  0  0  0
    4.6670    2.3364   10.7999 C   0  0  0  0  0  0
   -0.7296    4.2186   11.9436 C   0  0  0  0  0  0
   -1.6219    4.0992   11.1103 O   0  0  0  0  0  0
   -0.9164    4.8151   13.1183 N   0  0  0  0  0  0
   -0.6028   -0.8285   14.3655 C   0  0  0  0  0  0
   -1.9967   -1.0910   14.3173 C   0  0  0  0  0  0
   -2.8968   -0.3067   13.6290 O   0  0  0  0  0  0
   -2.3737    0.7384   12.8223 C   0  0  0  0  0  0
   -5.5623   -2.9216   16.0414 H   0  0  0  0  0  0
   -4.2629   -4.1113   16.0728 H   0  0  0  0  0  0
   -4.1628   -2.6361   17.0761 H   0  0  0  0  0  0
   -2.0249   -3.8520   16.3511 H   0  0  0  0  0  0
    0.3683   -3.3835   16.3973 H   0  0  0  0  0  0
    2.0949   -2.0163   15.9439 H   0  0  0  0  0  0
    5.1619    2.0048   13.4088 H   0  0  0  0  0  0
    6.7590    0.9973   15.3271 H   0  0  0  0  0  0
    6.0938   -0.7467   17.4526 H   0  0  0  0  0  0
    0.7124    2.4449   13.4099 H   0  0  0  0  0  0
    0.8964    4.8926    9.8873 H   0  0  0  0  0  0
    3.1978    4.1103    9.4618 H   0  0  0  0  0  0
    4.7641    2.4004    9.7147 H   0  0  0  0  0  0
    5.4120    2.9774   11.2632 H   0  0  0  0  0  0
    4.8583    1.2942   11.0728 H   0  0  0  0  0  0
   -1.8164    5.1998   13.3469 H   0  0  0  0  0  0
   -0.1423    4.9349   13.7571 H   0  0  0  0  0  0
   -0.2090    0.0277   13.8547 H   0  0  0  0  0  0
   -3.1564    1.1391   12.1820 H   0  0  0  0  0  0
   -1.9927    1.5522   13.4354 H   0  0  0  0  0  0
   -1.5702    0.3949   12.1788 H   0  0  0  0  0  0
  1  2  1  0  0  0
  1 31  1  0  0  0
  1 32  1  0  0  0
  1 33  1  0  0  0
  2  3  1  0  0  0
  3  4  2  0  0  0
  3 28  1  0  0  0
  4  5  1  0  0  0
  4 34  1  0  0  0
  5  6  2  0  0  0
  5 35  1  0  0  0
  6  7  1  0  0  0
  6 27  1  0  0  0
  7  8  1  0  0  0
  7 36  1  0  0  0
  8  9  2  0  0  0
  8 16  1  0  0  0
  9 10  1  0  0  0
 10 11  2  0  0  0
 10 17  1  0  0  0
 11 12  1  0  0  0
 11 37  1  0  0  0
 12 13  1  0  0  0
 12 16  1  0  0  0
 13 14  2  0  0  0
 13 38  1  0  0  0
 14 15  1  0  0  0
 14 39  1  0  0  0
 15 16  2  0  0  0
 17 18  2  0  0  0
 17 22  1  0  0  0
 18 19  1  0  0  0
 18 40  1  0  0  0
 19 20  2  0  0  0
 19 24  1  0  0  0
 20 21  1  0  0  0
 20 41  1  0  0  0
 21 22  2  0  0  0
 21 42  1  0  0  0
 22 23  1  0  0  0
 23 43  1  0  0  0
 23 44  1  0  0  0
 23 45  1  0  0  0
 24 25  2  0  0  0
 24 26  1  0  0  0
 26 46  1  0  0  0
 26 47  1  0  0  0
 27 28  2  0  0  0
 27 48  1  0  0  0
 28 29  1  0  0  0
 29 30  1  0  0  0
 30 49  1  0  0  0
 30 50  1  0  0  0
 30 51  1  0  0  0
M  END
> <s_m_entry_id>
1026

> <IC50[nM]>
466

> <s_m_Source_Path>
/projects/mai/users/kmzp800_harry/pmx_colab/docking_jobs/syk

> <s_m_Source_File>
tnks2_lig.sdf

> <i_m_Source_File_Index>
40

> <s_m_job_name>
glide-dock_SP_tnks2_core_const

> <r_i_docking_score>
-7.59673239003764

> <r_i_glide_gscore>
-7.59673239003764

> <r_i_glide_emodel>
-45.5168082594706

$$$$
CHEMBL3265035
                    3D
 Schrodinger Suite 2021-4.
 51 55  0  0  1  0            999 V2000
   -4.3188   -3.7955   14.6906 C   0  0  0  0  0  0
   -3.6581   -2.8324   13.8069 N   0  0  0  0  0  0
   -4.4738   -1.9475   12.9822 C   0  0  0  0  0  0
   -5.5115   -2.6682   12.1125 C   0  0  0  0  0  0
   -6.2155   -1.6888   11.3661 O   0  0  0  0  0  0
   -2.3542   -2.4194   14.1778 C   0  0  0  0  0  0
   -1.4966   -3.3222   14.8580 C   0  0  0  0  0  0
   -0.1899   -2.9457   15.2125 C   0  0  0  0  0  0
    0.3090   -1.6687   14.8847 C   0  0  0  0  0  0
    1.6237   -1.3606   15.2647 N   0  0  0  0  0  0
    2.5369   -0.4374   14.7286 C   0  0  0  0  0  0
    2.1960    0.3872   13.7590 N   0  0  0  0  0  0
    3.1286    1.2623   13.2423 C   0  0  0  0  0  0
    4.4412    1.2850   13.6802 C   0  0  0  0  0  0
    4.7684    0.4826   14.7198 N   0  0  0  0  0  0
    5.9173    0.3797   15.4742 C   0  0  0  0  0  0
    5.6108   -0.5014   16.4863 C   0  0  0  0  0  0
    4.3697   -1.0614   16.3203 N   0  0  0  0  0  0
    3.8393   -0.4163   15.2876 C   0  0  0  0  0  0
    2.6635    2.2187   12.2092 C   0  0  0  0  0  0
    3.5362    2.6912   11.1910 C   0  0  0  0  0  0
    3.0843    3.5312   10.1475 C   0  0  0  0  0  0
    1.7419    3.9569   10.1022 C   0  0  0  0  0  0
    0.9116    4.7489    9.2436 C   0  0  0  0  0  0
   -0.3134    4.8423    9.7066 N   0  0  0  0  0  0
   -0.3331    4.0993   10.8390 N   0  0  0  0  0  0
    0.8864    3.5285   11.1534 C   0  0  0  0  0  0
    1.3292    2.6803   12.1911 C   0  0  0  0  0  0
   -0.5419   -0.7611   14.2174 C   0  0  0  0  0  0
   -1.8561   -1.1262   13.8808 C   0  0  0  0  0  0
   -3.9471   -3.7275   15.7151 H   0  0  0  0  0  0
   -5.3955   -3.6299   14.7334 H   0  0  0  0  0  0
   -4.1571   -4.8165   14.3408 H   0  0  0  0  0  0
   -3.8403   -1.3785   12.2969 H   0  0  0  0  0  0
   -4.9648   -1.2423   13.6528 H   0  0  0  0  0  0
   -6.2225   -3.2422   12.7017 H   0  0  0  0  0  0
   -5.0158   -3.3567   11.4289 H   0  0  0  0  0  0
   -5.6820   -1.4469   10.6180 H   0  0  0  0  0  0
   -1.8272   -4.3162   15.1168 H   0  0  0  0  0  0
    0.4349   -3.6547   15.7353 H   0  0  0  0  0  0
    2.0398   -2.0216   15.9158 H   0  0  0  0  0  0
    5.1960    1.9796   13.3261 H   0  0  0  0  0  0
    6.7863    0.9695   15.2602 H   0  0  0  0  0  0
    6.1690   -0.7484   17.3546 H   0  0  0  0  0  0
    4.5709    2.3786   11.1713 H   0  0  0  0  0  0
    3.7697    3.8513    9.3735 H   0  0  0  0  0  0
    1.1756    5.2536    8.3276 H   0  0  0  0  0  0
   -1.1794    4.0178   11.3811 H   0  0  0  0  0  0
    0.6401    2.3590   12.9584 H   0  0  0  0  0  0
   -0.2115    0.2359   13.9708 H   0  0  0  0  0  0
   -2.4539   -0.3726   13.3835 H   0  0  0  0  0  0
  1  2  1  0  0  0
  1 31  1  0  0  0
  1 32  1  0  0  0
  1 33  1  0  0  0
  2  3  1  0  0  0
  2  6  1  0  0  0
  3  4  1  0  0  0
  3 34  1  0  0  0
  3 35  1  0  0  0
  4  5  1  0  0  0
  4 36  1  0  0  0
  4 37  1  0  0  0
  5 38  1  0  0  0
  6  7  2  0  0  0
  6 30  1  0  0  0
  7  8  1  0  0  0
  7 39  1  0  0  0
  8  9  2  0  0  0
  8 40  1  0  0  0
  9 10  1  0  0  0
  9 29  1  0  0  0
 10 11  1  0  0  0
 10 41  1  0  0  0
 11 12  2  0  0  0
 11 19  1  0  0  0
 12 13  1  0  0  0
 13 14  2  0  0  0
 13 20  1  0  0  0
 14 15  1  0  0  0
 14 42  1  0  0  0
 15 16  1  0  0  0
 15 19  1  0  0  0
 16 17  2  0  0  0
 16 43  1  0  0  0
 17 18  1  0  0  0
 17 44  1  0  0  0
 18 19  2  0  0  0
 20 21  2  0  0  0
 20 28  1  0  0  0
 21 22  1  0  0  0
 21 45  1  0  0  0
 22 23  2  0  0  0
 22 46  1  0  0  0
 23 24  1  0  0  0
 23 27  1  0  0  0
 24 25  2  0  0  0
 24 47  1  0  0  0
 25 26  1  0  0  0
 26 27  1  0  0  0
 26 48  1  0  0  0
 27 28  2  0  0  0
 28 49  1  0  0  0
 29 30  2  0  0  0
 29 50  1  0  0  0
 30 51  1  0  0  0
M  END
> <s_m_entry_id>
1027

> <IC50[nM]>
7.6

> <s_m_Source_Path>
/projects/mai/users/kmzp800_harry/pmx_colab/docking_jobs/syk

> <s_m_Source_File>
tnks2_lig.sdf

> <i_m_Source_File_Index>
41

> <s_m_job_name>
glide-dock_SP_tnks2_core_const

> <r_i_docking_score>
-7.04147352670355

> <r_i_glide_gscore>
-7.04147352670355

> <r_i_glide_emodel>
-48.6445037257504

$$$$
CHEMBL3265020
                    3D
 Schrodinger Suite 2021-4.
 48 52  0  0  1  0            999 V2000
   -4.5936   -2.9987   15.8420 C   0  0  0  0  0  0
   -3.9683   -2.1205   14.9158 O   0  0  0  0  0  0
   -2.5945   -1.9999   14.9669 C   0  0  0  0  0  0
   -1.7648   -2.8139   15.7766 C   0  0  0  0  0  0
   -0.3763   -2.6000   15.8174 C   0  0  0  0  0  0
    0.2209   -1.5722   15.0648 C   0  0  0  0  0  0
    1.6021   -1.3823   15.2537 N   0  0  0  0  0  0
    2.5187   -0.4532   14.7319 C   0  0  0  0  0  0
    2.1793    0.3493   13.7636 N   0  0  0  0  0  0
    3.0881    1.2533   13.2720 C   0  0  0  0  0  0
    4.3891    1.3269   13.7133 C   0  0  0  0  0  0
    4.7471    0.4892   14.7296 N   0  0  0  0  0  0
    5.8947    0.3818   15.4962 C   0  0  0  0  0  0
    5.5908   -0.4924   16.5135 C   0  0  0  0  0  0
    4.3379   -1.0441   16.3493 N   0  0  0  0  0  0
    3.8202   -0.4212   15.2955 C   0  0  0  0  0  0
    2.5231    2.2648   12.3639 C   0  0  0  0  0  0
    1.2100    2.7610   12.5541 C   0  0  0  0  0  0
    0.6959    3.7820   11.7364 C   0  0  0  0  0  0
    1.5087    4.3170   10.7263 C   0  0  0  0  0  0
    1.3150    5.3211    9.7992 N   0  0  0  0  0  0
    2.4463    5.4851    9.0176 C   0  0  0  0  0  0
    3.3879    4.5707    9.4104 C   0  0  0  0  0  0
    2.8271    3.8356   10.4962 C   0  0  0  0  0  0
    3.3087    2.8040   11.3257 C   0  0  0  0  0  0
   -0.6025   -0.7927   14.2186 C   0  0  0  0  0  0
   -2.0052   -0.9964   14.1660 C   0  0  0  0  0  0
   -2.8550   -0.2363   13.3857 O   0  0  0  0  0  0
   -2.2812    0.6649   12.4472 C   0  0  0  0  0  0
   -5.6753   -2.9262   15.7327 H   0  0  0  0  0  0
   -4.3482   -2.7343   16.8722 H   0  0  0  0  0  0
   -4.3128   -4.0372   15.6587 H   0  0  0  0  0  0
   -2.1686   -3.5969   16.4012 H   0  0  0  0  0  0
    0.2269   -3.2157   16.4708 H   0  0  0  0  0  0
    2.0152   -1.9692   15.9679 H   0  0  0  0  0  0
    5.1141    2.0646   13.3865 H   0  0  0  0  0  0
    6.7504    1.0083   15.2951 H   0  0  0  0  0  0
    6.1062   -0.7358   17.4217 H   0  0  0  0  0  0
    0.5971    2.3763   13.3560 H   0  0  0  0  0  0
   -0.2987    4.1659   11.9008 H   0  0  0  0  0  0
    0.4848    5.8878    9.7000 H   0  0  0  0  0  0
    2.4857    6.2373    8.2434 H   0  0  0  0  0  0
    4.3764    4.4082    9.0173 H   0  0  0  0  0  0
    4.3104    2.4360   11.1639 H   0  0  0  0  0  0
   -0.1735   -0.0060   13.6273 H   0  0  0  0  0  0
   -3.0702    1.0943   11.8302 H   0  0  0  0  0  0
   -1.7705    1.4880   12.9486 H   0  0  0  0  0  0
   -1.5827    0.1591   11.7782 H   0  0  0  0  0  0
  1  2  1  0  0  0
  1 30  1  0  0  0
  1 31  1  0  0  0
  1 32  1  0  0  0
  2  3  1  0  0  0
  3  4  2  0  0  0
  3 27  1  0  0  0
  4  5  1  0  0  0
  4 33  1  0  0  0
  5  6  2  0  0  0
  5 34  1  0  0  0
  6  7  1  0  0  0
  6 26  1  0  0  0
  7  8  1  0  0  0
  7 35  1  0  0  0
  8  9  2  0  0  0
  8 16  1  0  0  0
  9 10  1  0  0  0
 10 11  2  0  0  0
 10 17  1  0  0  0
 11 12  1  0  0  0
 11 36  1  0  0  0
 12 13  1  0  0  0
 12 16  1  0  0  0
 13 14  2  0  0  0
 13 37  1  0  0  0
 14 15  1  0  0  0
 14 38  1  0  0  0
 15 16  2  0  0  0
 17 18  2  0  0  0
 17 25  1  0  0  0
 18 19  1  0  0  0
 18 39  1  0  0  0
 19 20  2  0  0  0
 19 40  1  0  0  0
 20 21  1  0  0  0
 20 24  1  0  0  0
 21 22  1  0  0  0
 21 41  1  0  0  0
 22 23  2  0  0  0
 22 42  1  0  0  0
 23 24  1  0  0  0
 23 43  1  0  0  0
 24 25  2  0  0  0
 25 44  1  0  0  0
 26 27  2  0  0  0
 26 45  1  0  0  0
 27 28  1  0  0  0
 28 29  1  0  0  0
 29 46  1  0  0  0
 29 47  1  0  0  0
 29 48  1  0  0  0
M  END
> <s_m_entry_id>
1028

> <IC50[nM]>
8.6

> <s_m_Source_Path>
/projects/mai/users/kmzp800_harry/pmx_colab/docking_jobs/syk

> <s_m_Source_File>
tnks2_lig.sdf

> <i_m_Source_File_Index>
42

> <s_m_job_name>
glide-dock_SP_tnks2_core_const

> <r_i_docking_score>
-7.31517042029427

> <r_i_glide_gscore>
-7.31517042029427

> <r_i_glide_emodel>
-50.2259337566128

$$$$
CHEMBL3265032
                    3D
 Schrodinger Suite 2021-4.
 52 57  0  0  1  0            999 V2000
   -6.1494   -2.5861   15.2033 C   0  0  0  0  0  0
   -4.7211   -2.0658   15.4300 C   0  0  0  0  0  0
   -3.8423   -2.5088   14.3516 N   0  0  0  0  0  0
   -4.3590   -2.2849   13.0039 C   0  0  0  0  0  0
   -5.8026   -2.7949   12.8832 C   0  0  0  0  0  0
   -6.5965   -2.1943   13.9050 O   0  0  0  0  0  0
   -2.4976   -2.1749   14.5730 C   0  0  0  0  0  0
   -1.7128   -2.9775   15.4256 C   0  0  0  0  0  0
   -0.3571   -2.6652   15.6482 C   0  0  0  0  0  0
    0.2397   -1.5455   15.0295 C   0  0  0  0  0  0
    1.5951   -1.3017   15.3053 N   0  0  0  0  0  0
    2.5331   -0.4272   14.7286 C   0  0  0  0  0  0
    2.2010    0.3686   13.7453 N   0  0  0  0  0  0
    3.1415    1.2477   13.2388 C   0  0  0  0  0  0
    4.4473    1.2741   13.6759 C   0  0  0  0  0  0
    4.7712    0.4787   14.7214 N   0  0  0  0  0  0
    5.9116    0.3833   15.4906 C   0  0  0  0  0  0
    5.6017   -0.4943   16.4962 C   0  0  0  0  0  0
    4.3630   -1.0634   16.3183 N   0  0  0  0  0  0
    3.8388   -0.4145   15.2863 C   0  0  0  0  0  0
    2.6677    2.2231   12.2239 C   0  0  0  0  0  0
    3.5491    2.7407   11.2394 C   0  0  0  0  0  0
    3.1131    3.6551   10.2587 C   0  0  0  0  0  0
    1.7751    4.1024   10.2383 C   0  0  0  0  0  0
    0.9700    4.9821    9.4440 C   0  0  0  0  0  0
   -0.2648    5.0376    9.8832 N   0  0  0  0  0  0
   -0.3027    4.2166   10.9634 N   0  0  0  0  0  0
    0.9048    3.6019   11.2414 C   0  0  0  0  0  0
    1.3307    2.6843   12.2183 C   0  0  0  0  0  0
   -0.5612   -0.7273   14.2024 C   0  0  0  0  0  0
   -1.9111   -1.0387   13.9771 C   0  0  0  0  0  0
   -6.8246   -2.1824   15.9598 H   0  0  0  0  0  0
   -6.1820   -3.6735   15.3002 H   0  0  0  0  0  0
   -4.3484   -2.4265   16.3907 H   0  0  0  0  0  0
   -4.7205   -0.9765   15.4780 H   0  0  0  0  0  0
   -4.3310   -1.2270   12.7504 H   0  0  0  0  0  0
   -3.7288   -2.8062   12.2859 H   0  0  0  0  0  0
   -6.2103   -2.5258   11.9088 H   0  0  0  0  0  0
   -5.8413   -3.8843   12.9525 H   0  0  0  0  0  0
   -2.1433   -3.8430   15.9089 H   0  0  0  0  0  0
    0.2248   -3.2986   16.3036 H   0  0  0  0  0  0
    1.9996   -1.8928   16.0209 H   0  0  0  0  0  0
    5.2016    1.9712   13.3289 H   0  0  0  0  0  0
    6.7687    1.0079   15.2897 H   0  0  0  0  0  0
    6.1236   -0.7365   17.3967 H   0  0  0  0  0  0
    4.5770    2.4118   11.2084 H   0  0  0  0  0  0
    3.8066    4.0141    9.5131 H   0  0  0  0  0  0
    1.2568    5.5666    8.5824 H   0  0  0  0  0  0
   -1.1588    4.1042   11.4860 H   0  0  0  0  0  0
    0.6316    2.3323   12.9611 H   0  0  0  0  0  0
   -0.1831    0.1608   13.7279 H   0  0  0  0  0  0
   -2.4771   -0.3831   13.3356 H   0  0  0  0  0  0
  1  2  1  0  0  0
  1  6  1  0  0  0
  1 32  1  0  0  0
  1 33  1  0  0  0
  2  3  1  0  0  0
  2 34  1  0  0  0
  2 35  1  0  0  0
  3  4  1  0  0  0
  3  7  1  0  0  0
  4  5  1  0  0  0
  4 36  1  0  0  0
  4 37  1  0  0  0
  5  6  1  0  0  0
  5 38  1  0  0  0
  5 39  1  0  0  0
  7  8  2  0  0  0
  7 31  1  0  0  0
  8  9  1  0  0  0
  8 40  1  0  0  0
  9 10  2  0  0  0
  9 41  1  0  0  0
 10 11  1  0  0  0
 10 30  1  0  0  0
 11 12  1  0  0  0
 11 42  1  0  0  0
 12 13  2  0  0  0
 12 20  1  0  0  0
 13 14  1  0  0  0
 14 15  2  0  0  0
 14 21  1  0  0  0
 15 16  1  0  0  0
 15 43  1  0  0  0
 16 17  1  0  0  0
 16 20  1  0  0  0
 17 18  2  0  0  0
 17 44  1  0  0  0
 18 19  1  0  0  0
 18 45  1  0  0  0
 19 20  2  0  0  0
 21 22  2  0  0  0
 21 29  1  0  0  0
 22 23  1  0  0  0
 22 46  1  0  0  0
 23 24  2  0  0  0
 23 47  1  0  0  0
 24 25  1  0  0  0
 24 28  1  0  0  0
 25 26  2  0  0  0
 25 48  1  0  0  0
 26 27  1  0  0  0
 27 28  1  0  0  0
 27 49  1  0  0  0
 28 29  2  0  0  0
 29 50  1  0  0  0
 30 31  2  0  0  0
 30 51  1  0  0  0
 31 52  1  0  0  0
M  END
> <s_m_entry_id>
1029

> <IC50[nM]>
10000

> <s_m_Source_Path>
/projects/mai/users/kmzp800_harry/pmx_colab/docking_jobs/syk

> <s_m_Source_File>
tnks2_lig.sdf

> <i_m_Source_File_Index>
43

> <s_m_job_name>
glide-dock_SP_tnks2_core_const

> <r_i_docking_score>
-7.03339253006377

> <r_i_glide_gscore>
-7.03339253006377

> <r_i_glide_emodel>
-48.7703832870253

$$$$
CHEMBL3265002
                    3D
 Schrodinger Suite 2021-4.
 65 70  0  0  1  0            999 V2000
   -4.6134   -3.0864   15.4674 C   0  0  0  0  0  0
   -3.9609   -2.1259   14.6470 O   0  0  0  0  0  0
   -2.5950   -1.9788   14.7839 C   0  0  0  0  0  0
   -1.7952   -2.7984   15.6189 C   0  0  0  0  0  0
   -0.4134   -2.5648   15.7387 C   0  0  0  0  0  0
    0.2062   -1.5155   15.0327 C   0  0  0  0  0  0
    1.5803   -1.3235   15.2659 N   0  0  0  0  0  0
    2.5216   -0.4279   14.7294 C   0  0  0  0  0  0
    2.1978    0.3840   13.7551 N   0  0  0  0  0  0
    3.1265    1.2708   13.2465 C   0  0  0  0  0  0
    4.4316    1.2862   13.6896 C   0  0  0  0  0  0
    4.7620    0.4698   14.7212 N   0  0  0  0  0  0
    5.9066    0.3713   15.4855 C   0  0  0  0  0  0
    5.5943   -0.4930   16.5014 C   0  0  0  0  0  0
    4.3512   -1.0632   16.3290 N   0  0  0  0  0  0
    3.8241   -0.4196   15.2933 C   0  0  0  0  0  0
    2.6629    2.2606   12.2370 C   0  0  0  0  0  0
    3.5766    2.8026   11.2972 C   0  0  0  0  0  0
    3.1623    3.7080   10.3061 C   0  0  0  0  0  0
    1.8159    4.0966   10.2356 C   0  0  0  0  0  0
    0.8847    3.6040   11.1729 C   0  0  0  0  0  0
    1.3161    2.7024   12.1783 C   0  0  0  0  0  0
   -0.5604    3.9685   11.0127 C   0  0  0  0  0  0
   -1.0611    3.9650    9.8881 O   0  0  0  0  0  0
   -1.2032    4.3267   12.1405 N   0  0  0  0  0  0
   -2.5402    4.8017   12.2671 C   0  0  0  0  0  0
   -3.5705    4.4892   11.3459 C   0  0  0  0  0  0
   -4.8655    5.0160   11.5151 C   0  0  0  0  0  0
   -5.1586    5.8450   12.6183 C   0  0  0  0  0  0
   -4.1494    6.1088   13.5659 C   0  0  0  0  0  0
   -2.8473    5.6035   13.3861 C   0  0  0  0  0  0
   -6.4945    6.4017   12.8022 C   0  0  0  0  0  0
   -6.7463    7.5569   13.4173 N   0  0  0  0  0  0
   -8.1338    7.7014   13.4025 C   0  0  0  0  0  0
   -8.6993    6.6250   12.7631 C   0  0  0  0  0  0
   -7.6333    5.8259   12.3892 N   0  0  0  0  0  0
   -0.5903   -0.7178   14.1782 C   0  0  0  0  0  0
   -1.9833   -0.9394   14.0481 C   0  0  0  0  0  0
   -2.8019   -0.1698   13.2447 O   0  0  0  0  0  0
   -2.2053    0.8003   12.3943 C   0  0  0  0  0  0
   -5.6869   -3.0493   15.2814 H   0  0  0  0  0  0
   -4.2765   -4.0990   15.2403 H   0  0  0  0  0  0
   -4.4556   -2.8805   16.5286 H   0  0  0  0  0  0
   -2.2173   -3.6050   16.1997 H   0  0  0  0  0  0
    0.1669   -3.1922   16.4019 H   0  0  0  0  0  0
    1.9768   -1.9188   15.9830 H   0  0  0  0  0  0
    5.1921    1.9814   13.3536 H   0  0  0  0  0  0
    6.7649    0.9926   15.2796 H   0  0  0  0  0  0
    6.1165   -0.7386   17.4010 H   0  0  0  0  0  0
    4.6121    2.4978   11.2995 H   0  0  0  0  0  0
    3.8740    4.0884    9.5880 H   0  0  0  0  0  0
    1.4985    4.7717    9.4529 H   0  0  0  0  0  0
    0.6003    2.3064   12.8832 H   0  0  0  0  0  0
   -0.6306    4.3856   12.9702 H   0  0  0  0  0  0
   -3.3900    3.8532   10.4930 H   0  0  0  0  0  0
   -5.6271    4.7872   10.7840 H   0  0  0  0  0  0
   -4.3693    6.7152   14.4328 H   0  0  0  0  0  0
   -2.0837    5.8336   14.1166 H   0  0  0  0  0  0
   -8.6104    8.5612   13.8500 H   0  0  0  0  0  0
   -9.7284    6.3706   12.5516 H   0  0  0  0  0  0
   -7.6998    4.9479   11.8957 H   0  0  0  0  0  0
   -0.1498    0.0935   13.6320 H   0  0  0  0  0  0
   -2.9723    1.2553   11.7680 H   0  0  0  0  0  0
   -1.7407    1.5978   12.9745 H   0  0  0  0  0  0
   -1.4648    0.3530   11.7295 H   0  0  0  0  0  0
  1  2  1  0  0  0
  1 41  1  0  0  0
  1 42  1  0  0  0
  1 43  1  0  0  0
  2  3  1  0  0  0
  3  4  2  0  0  0
  3 38  1  0  0  0
  4  5  1  0  0  0
  4 44  1  0  0  0
  5  6  2  0  0  0
  5 45  1  0  0  0
  6  7  1  0  0  0
  6 37  1  0  0  0
  7  8  1  0  0  0
  7 46  1  0  0  0
  8  9  2  0  0  0
  8 16  1  0  0  0
  9 10  1  0  0  0
 10 11  2  0  0  0
 10 17  1  0  0  0
 11 12  1  0  0  0
 11 47  1  0  0  0
 12 13  1  0  0  0
 12 16  1  0  0  0
 13 14  2  0  0  0
 13 48  1  0  0  0
 14 15  1  0  0  0
 14 49  1  0  0  0
 15 16  2  0  0  0
 17 18  2  0  0  0
 17 22  1  0  0  0
 18 19  1  0  0  0
 18 50  1  0  0  0
 19 20  2  0  0  0
 19 51  1  0  0  0
 20 21  1  0  0  0
 20 52  1  0  0  0
 21 22  2  0  0  0
 21 23  1  0  0  0
 22 53  1  0  0  0
 23 24  2  0  0  0
 23 25  1  0  0  0
 25 26  1  0  0  0
 25 54  1  0  0  0
 26 27  2  0  0  0
 26 31  1  0  0  0
 27 28  1  0  0  0
 27 55  1  0  0  0
 28 29  2  0  0  0
 28 56  1  0  0  0
 29 30  1  0  0  0
 29 32  1  0  0  0
 30 31  2  0  0  0
 30 57  1  0  0  0
 31 58  1  0  0  0
 32 33  2  0  0  0
 32 36  1  0  0  0
 33 34  1  0  0  0
 34 35  2  0  0  0
 34 59  1  0  0  0
 35 36  1  0  0  0
 35 60  1  0  0  0
 36 61  1  0  0  0
 37 38  2  0  0  0
 37 62  1  0  0  0
 38 39  1  0  0  0
 39 40  1  0  0  0
 40 63  1  0  0  0
 40 64  1  0  0  0
 40 65  1  0  0  0
M  END
> <s_m_entry_id>
1030

> <IC50[nM]>
16.5

> <s_m_Source_Path>
/projects/mai/users/kmzp800_harry/pmx_colab/docking_jobs/syk

> <s_m_Source_File>
tnks2_lig.sdf

> <i_m_Source_File_Index>
44

> <s_m_job_name>
glide-dock_SP_tnks2_core_const

> <r_i_docking_score>
-7.92574920945951

> <r_i_glide_gscore>
-7.92574920945951

> <r_i_glide_emodel>
-75.2167789893091

$$$$
