CHEMBL3265037
     RDKit          3D

 56 61  0  0  1  0  0  0  0  0999 V2000
    5.8200   -0.4720   16.3380 C   0  0  0  0  0  0  0  0  0  0  0  0
    4.5750   -1.0070   16.2580 N   0  0  0  0  0  0  0  0  0  0  0  0
    3.9940   -0.3080   15.2670 C   0  0  0  0  0  0  0  0  0  0  0  0
    2.6970   -0.4660   14.7860 C   0  0  0  0  0  0  0  0  0  0  0  0
    1.8320   -1.4670   15.3380 N   0  0  0  0  0  0  0  0  0  0  0  0
    2.2990    0.3450   13.7590 N   0  0  0  0  0  0  0  0  0  0  0  0
    3.1260    1.2920   13.2140 C   0  0  0  0  0  0  0  0  0  0  0  0
    4.4310    1.4340   13.7260 C   0  0  0  0  0  0  0  0  0  0  0  0
    4.8000    0.6140   14.7390 N   0  0  0  0  0  0  0  0  0  0  0  0
    5.9670    0.5410   15.3920 C   0  0  0  0  0  0  0  0  0  0  0  0
    2.6510    2.1410   12.1030 C   0  0  0  0  0  0  0  0  0  0  0  0
    3.5710    2.6130   11.1320 C   0  0  0  0  0  0  0  0  0  0  0  0
    3.1490    3.4240   10.0620 C   0  0  0  0  0  0  0  0  0  0  0  0
    1.7970    3.7400   10.0010 C   0  0  0  0  0  0  0  0  0  0  0  0
    1.0780    4.4950    9.1030 C   0  0  0  0  0  0  0  0  0  0  0  0
   -0.2120    4.4730    9.5240 N   0  0  0  0  0  0  0  0  0  0  0  0
   -0.3240    3.7450   10.6320 N   0  0  0  0  0  0  0  0  0  0  0  0
    0.9040    3.2950   10.9260 C   0  0  0  0  0  0  0  0  0  0  0  0
    1.2860    2.4920   11.9960 C   0  0  0  0  0  0  0  0  0  0  0  0
    0.4440   -1.6690   15.0440 C   0  0  0  0  0  0  0  0  0  0  0  0
   -0.1610   -2.8590   15.4490 C   0  0  0  0  0  0  0  0  0  0  0  0
   -1.5140   -3.0840   15.1990 C   0  0  0  0  0  0  0  0  0  0  0  0
   -2.2990   -2.1220   14.5430 C   0  0  0  0  0  0  0  0  0  0  0  0
   -1.6900   -0.9140   14.1240 C   0  0  0  0  0  0  0  0  0  0  0  0
   -0.3250   -0.7030   14.3850 C   0  0  0  0  0  0  0  0  0  0  0  0
   -3.6980   -2.3960   14.3210 N   0  0  0  0  0  0  0  0  0  0  0  0
   -4.6990   -2.2270   15.3750 C   0  0  0  0  0  0  0  0  0  0  0  0
   -5.7510   -3.3310   15.2610 C   0  0  0  0  0  0  0  0  0  0  0  0
   -6.2860   -3.3470   13.9610 O   0  0  0  0  0  0  0  0  0  0  0  0
   -5.2690   -3.8320   13.1190 C   0  0  0  0  0  0  0  0  0  0  0  0
   -4.1610   -2.7860   12.9870 C   0  0  0  0  0  0  0  0  0  0  0  0
   -2.4360    0.0530   13.4390 O   0  0  0  0  0  0  0  0  0  0  0  0
   -1.9050    0.8320   12.3760 C   0  0  0  0  0  0  0  0  0  0  0  0
    6.5990   -0.7913   17.0460 H   0  0  0  0  0  0  0  0  0  0  0  0
    2.2545   -2.1119   16.0210 H   0  0  0  0  0  0  0  0  0  0  0  0
    5.1249    2.1836   13.3179 H   0  0  0  0  0  0  0  0  0  0  0  0
    6.8616    1.1567   15.2170 H   0  0  0  0  0  0  0  0  0  0  0  0
    4.6333    2.3403   11.2168 H   0  0  0  0  0  0  0  0  0  0  0  0
    3.8588    3.7919    9.3064 H   0  0  0  0  0  0  0  0  0  0  0  0
    1.4718    5.0148    8.2171 H   0  0  0  0  0  0  0  0  0  0  0  0
   -1.1881    3.5623   11.1620 H   0  0  0  0  0  0  0  0  0  0  0  0
    0.5499    2.1417   12.7345 H   0  0  0  0  0  0  0  0  0  0  0  0
    0.4333   -3.6248   15.9690 H   0  0  0  0  0  0  0  0  0  0  0  0
   -1.9739   -4.0301   15.5207 H   0  0  0  0  0  0  0  0  0  0  0  0
    0.1471    0.2379   14.0657 H   0  0  0  0  0  0  0  0  0  0  0  0
   -4.2097   -2.2870   16.3583 H   0  0  0  0  0  0  0  0  0  0  0  0
   -5.1841   -1.2458   15.2659 H   0  0  0  0  0  0  0  0  0  0  0  0
   -5.2843   -4.3037   15.4758 H   0  0  0  0  0  0  0  0  0  0  0  0
   -6.5581   -3.1394   15.9834 H   0  0  0  0  0  0  0  0  0  0  0  0
   -4.8504   -4.7550   13.5466 H   0  0  0  0  0  0  0  0  0  0  0  0
   -5.6905   -4.0412   12.1247 H   0  0  0  0  0  0  0  0  0  0  0  0
   -4.5515   -1.9022   12.4612 H   0  0  0  0  0  0  0  0  0  0  0  0
   -3.3216   -3.2101   12.4164 H   0  0  0  0  0  0  0  0  0  0  0  0
   -1.3310    1.6742   12.7898 H   0  0  0  0  0  0  0  0  0  0  0  0
   -1.2443    0.2066   11.7576 H   0  0  0  0  0  0  0  0  0  0  0  0
   -2.7286    1.2183   11.7576 H   0  0  0  0  0  0  0  0  0  0  0  0
  1  2  1  0
  1 10  2  0
  2  3  2  0
  3  4  1  0
  3  9  1  0
  4  5  1  0
  4  6  2  0
  5 20  1  0
  6  7  1  0
  7  8  2  0
  7 11  1  0
  8  9  1  0
  9 10  1  0
 11 12  2  0
 11 19  1  0
 12 13  1  0
 13 14  2  0
 14 18  1  0
 14 15  1  0
 15 16  2  0
 16 17  1  0
 17 18  1  0
 18 19  2  0
 20 21  2  0
 20 25  1  0
 21 22  1  0
 22 23  2  0
 23 24  1  0
 23 26  1  0
 24 25  2  0
 24 32  1  0
 26 27  1  0
 26 31  1  0
 27 28  1  0
 28 29  1  0
 29 30  1  0
 30 31  1  0
 32 33  1  0
  1 34  1  0
  5 35  1  0
  8 36  1  0
 10 37  1  0
 12 38  1  0
 13 39  1  0
 15 40  1  0
 17 41  1  0
 19 42  1  0
 21 43  1  0
 22 44  1  0
 25 45  1  0
 27 46  1  0
 27 47  1  0
 28 48  1  0
 28 49  1  0
 30 50  1  0
 30 51  1  0
 31 52  1  0
 31 53  1  0
 33 54  1  0
 33 55  1  0
 33 56  1  0
M  END
>  <s_m_entry_id>  (1) 
177

>  <MODEL>  (1) 
1

>  <REMARK>  (1) 
 VINA RESULT:   -10.555      0.000      0.000
 INTER + INTRA:         -12.666
 INTER:                 -12.116
 INTRA:                  -0.550
 UNBOUND:                 0.356
  Name = /scratch/kmzp800/tmpunnj1tse/tmpg69yzawd.pdb
  5 active torsions:
  status: ('A' for Active; 'I' for Inactive)
    1  A    between atoms: N2_5  and  C4_6
    2  A    between atoms: C7_9  and  N3_10
    3  A    between atoms: C12_16  and  O2_17
    4  A    between atoms: O2_17  and  C13_18
    5  A    between atoms: C15_21  and  C16_22
                            x       y       z     vdW  Elec       q    Type
                         _______ _______ _______ _____ _____    ______ ____

>  <TORSDO>  (1) 
F 4

>  <grid_id>  (1) 
syk-prepared

>  <grid_path>  (1) 
syk_vina.pdbqt

>  <grid_filename>  (1) 
syk_vina.pdbqt

>  <docking_score>  (1) 
-10.555

>  <compound_name>  (1) 
CHEMBL3265037

>  <index_string>  (1) 
0:0:0

>  <s_m_Source_Path>  (1) 
/projects/mai/users/kmzp800_harry/pmx_colab/docking_jobs/syk/vina_prep/output

>  <s_m_Source_File>  (1) 
ptp1b_docked_conformers.sdf

>  <i_m_Source_File_Index>  (1) 
1

$$$$
CHEMBL3259820
     RDKit          3D

 48 51  0  0  1  0  0  0  0  0999 V2000
    5.5910   -0.5900   16.2430 C   0  0  0  0  0  0  0  0  0  0  0  0
    4.3290   -1.0840   16.1800 N   0  0  0  0  0  0  0  0  0  0  0  0
    3.7500   -0.3510   15.2140 C   0  0  0  0  0  0  0  0  0  0  0  0
    2.4400   -0.4600   14.7550 C   0  0  0  0  0  0  0  0  0  0  0  0
    1.5490   -1.4340   15.3200 N   0  0  0  0  0  0  0  0  0  0  0  0
    2.0450    0.3860   13.7590 N   0  0  0  0  0  0  0  0  0  0  0  0
    2.8890    1.3190   13.2140 C   0  0  0  0  0  0  0  0  0  0  0  0
    4.2090    1.4080   13.6970 C   0  0  0  0  0  0  0  0  0  0  0  0
    4.5740    0.5570   14.6850 N   0  0  0  0  0  0  0  0  0  0  0  0
    5.7510    0.4340   15.3130 C   0  0  0  0  0  0  0  0  0  0  0  0
    0.1810   -1.6680   14.9570 C   0  0  0  0  0  0  0  0  0  0  0  0
   -0.4640   -2.8820   15.2310 C   0  0  0  0  0  0  0  0  0  0  0  0
   -1.7970   -3.0710   14.8620 C   0  0  0  0  0  0  0  0  0  0  0  0
   -2.5070   -2.0490   14.2130 C   0  0  0  0  0  0  0  0  0  0  0  0
   -1.8680   -0.8320   13.9340 C   0  0  0  0  0  0  0  0  0  0  0  0
   -0.5260   -0.6510   14.3110 C   0  0  0  0  0  0  0  0  0  0  0  0
   -3.8440   -2.2220   13.8350 O   0  0  0  0  0  0  0  0  0  0  0  0
   -4.2510   -3.1650   12.8540 C   0  0  0  0  0  0  0  0  0  0  0  0
   -2.5810    0.1830   13.2870 O   0  0  0  0  0  0  0  0  0  0  0  0
   -2.0630    0.8970   12.1730 C   0  0  0  0  0  0  0  0  0  0  0  0
    2.4090    2.2110   12.1370 C   0  0  0  0  0  0  0  0  0  0  0  0
    1.0420    2.4980   12.0190 C   0  0  0  0  0  0  0  0  0  0  0  0
    0.5790    3.3400   11.0050 C   0  0  0  0  0  0  0  0  0  0  0  0
    1.4760    3.9090   10.0900 C   0  0  0  0  0  0  0  0  0  0  0  0
    2.8430    3.6230   10.2060 C   0  0  0  0  0  0  0  0  0  0  0  0
    3.3060    2.7810   11.2210 C   0  0  0  0  0  0  0  0  0  0  0  0
    0.9860    4.7960    9.0220 C   0  0  0  0  0  0  0  0  0  0  0  0
    1.6050    5.8580    8.7440 O   0  0  0  0  0  0  0  0  0  0  0  0
   -0.1900    4.4650    8.2900 N   0  0  0  0  0  0  0  0  0  0  0  0
    6.3737   -0.9464   16.9288 H   0  0  0  0  0  0  0  0  0  0  0  0
    1.9339   -2.0294   16.0672 H   0  0  0  0  0  0  0  0  0  0  0  0
    4.9178    2.1422   13.2865 H   0  0  0  0  0  0  0  0  0  0  0  0
    6.6614    1.0238   15.1305 H   0  0  0  0  0  0  0  0  0  0  0  0
    0.0829   -3.6898   15.7393 H   0  0  0  0  0  0  0  0  0  0  0  0
   -2.2942   -4.0274   15.0814 H   0  0  0  0  0  0  0  0  0  0  0  0
   -0.0257    0.3044   14.0944 H   0  0  0  0  0  0  0  0  0  0  0  0
   -4.6399   -4.0661   13.3507 H   0  0  0  0  0  0  0  0  0  0  0  0
   -5.0388   -2.7237   12.2258 H   0  0  0  0  0  0  0  0  0  0  0  0
   -3.3895   -3.4355   12.2258 H   0  0  0  0  0  0  0  0  0  0  0  0
   -1.4519    1.7393   12.5294 H   0  0  0  0  0  0  0  0  0  0  0  0
   -1.4411    0.2248   11.5636 H   0  0  0  0  0  0  0  0  0  0  0  0
   -2.8950    1.2796   11.5636 H   0  0  0  0  0  0  0  0  0  0  0  0
    0.3283    2.0568   12.7304 H   0  0  0  0  0  0  0  0  0  0  0  0
   -0.4961    3.5579   10.9240 H   0  0  0  0  0  0  0  0  0  0  0  0
    3.5560    4.0639    9.4938 H   0  0  0  0  0  0  0  0  0  0  0  0
    4.3813    2.5637   11.3022 H   0  0  0  0  0  0  0  0  0  0  0  0
   -0.5258    5.0912    7.5444 H   0  0  0  0  0  0  0  0  0  0  0  0
   -0.7046    3.5994    8.5062 H   0  0  0  0  0  0  0  0  0  0  0  0
  1  2  1  0
  1 10  2  0
  2  3  2  0
  3  4  1  0
  3  9  1  0
  4  5  1  0
  4  6  2  0
  5 11  1  0
  6  7  1  0
  7  8  2  0
  7 21  1  0
  8  9  1  0
  9 10  1  0
 11 12  2  0
 11 16  1  0
 12 13  1  0
 13 14  2  0
 14 15  1  0
 14 17  1  0
 15 16  2  0
 15 19  1  0
 17 18  1  0
 19 20  1  0
 21 22  2  0
 21 26  1  0
 22 23  1  0
 23 24  2  0
 24 25  1  0
 24 27  1  0
 25 26  2  0
 27 28  2  0
 27 29  1  0
  1 30  1  0
  5 31  1  0
  8 32  1  0
 10 33  1  0
 12 34  1  0
 13 35  1  0
 16 36  1  0
 18 37  1  0
 18 38  1  0
 18 39  1  0
 20 40  1  0
 20 41  1  0
 20 42  1  0
 22 43  1  0
 23 44  1  0
 25 45  1  0
 26 46  1  0
 29 47  1  0
 29 48  1  0
M  END
>  <s_m_entry_id>  (2) 
199

>  <MODEL>  (2) 
2

>  <REMARK>  (2) 
 VINA RESULT:    -9.297      1.757      6.530
 INTER + INTRA:         -11.781
 INTER:                 -11.506
 INTRA:                  -0.275
 UNBOUND:                 0.233
  Name = /scratch/kmzp800/tmpz02z9zbh/tmptzkh7zs7.pdb
  7 active torsions:
  status: ('A' for Active; 'I' for Inactive)
    1  A    between atoms: N2_5  and  C4_6
    2  A    between atoms: C7_9  and  O1_10
    3  A    between atoms: O1_10  and  C8_11
    4  A    between atoms: C9_12  and  O2_13
    5  A    between atoms: O2_13  and  C10_14
    6  A    between atoms: C12_17  and  C13_18
    7  A    between atoms: C16_21  and  C17_22
                            x       y       z     vdW  Elec       q    Type
                         _______ _______ _______ _____ _____    ______ ____

>  <TORSDO>  (2) 
F 5

>  <grid_id>  (2) 
syk-prepared

>  <grid_path>  (2) 
syk_vina.pdbqt

>  <grid_filename>  (2) 
syk_vina.pdbqt

>  <docking_score>  (2) 
-9.297

>  <compound_name>  (2) 
CHEMBL3259820

>  <index_string>  (2) 
1:0:1

>  <s_m_Source_Path>  (2) 
/projects/mai/users/kmzp800_harry/pmx_colab/docking_jobs/syk/vina_prep/output

>  <s_m_Source_File>  (2) 
ptp1b_docked_conformers.sdf

>  <i_m_Source_File_Index>  (2) 
23

$$$$
CHEMBL3265021
     RDKit          3D

 47 51  0  0  1  0  0  0  0  0999 V2000
    5.5810   -0.6170   16.3560 C   0  0  0  0  0  0  0  0  0  0  0  0
    4.3040   -1.0610   16.2360 N   0  0  0  0  0  0  0  0  0  0  0  0
    3.8110   -0.3350   15.2180 C   0  0  0  0  0  0  0  0  0  0  0  0
    2.5240   -0.4050   14.6900 C   0  0  0  0  0  0  0  0  0  0  0  0
    1.5630   -1.3230   15.2310 N   0  0  0  0  0  0  0  0  0  0  0  0
    2.2210    0.4260   13.6490 N   0  0  0  0  0  0  0  0  0  0  0  0
    3.1320    1.3050   13.1260 C   0  0  0  0  0  0  0  0  0  0  0  0
    4.4260    1.3560   13.6800 C   0  0  0  0  0  0  0  0  0  0  0  0
    4.7000    0.5220   14.7100 N   0  0  0  0  0  0  0  0  0  0  0  0
    5.8350    0.3710   15.4060 C   0  0  0  0  0  0  0  0  0  0  0  0
    2.7510    2.1810   11.9990 C   0  0  0  0  0  0  0  0  0  0  0  0
    3.7170    2.5340   11.0200 C   0  0  0  0  0  0  0  0  0  0  0  0
    3.3830    3.3660    9.9350 C   0  0  0  0  0  0  0  0  0  0  0  0
    2.0720    3.8260    9.8660 C   0  0  0  0  0  0  0  0  0  0  0  0
    1.1380    3.4950   10.7980 C   0  0  0  0  0  0  0  0  0  0  0  0
   -0.0260    4.1180   10.4160 C   0  0  0  0  0  0  0  0  0  0  0  0
    0.2540    4.7960    9.2730 N   0  0  0  0  0  0  0  0  0  0  0  0
    1.5280    4.6210    8.9350 N   0  0  0  0  0  0  0  0  0  0  0  0
    1.4300    2.6750   11.8830 C   0  0  0  0  0  0  0  0  0  0  0  0
    0.2090   -1.5130   14.7990 C   0  0  0  0  0  0  0  0  0  0  0  0
   -0.4840   -2.7100   15.0200 C   0  0  0  0  0  0  0  0  0  0  0  0
   -1.8020   -2.8550   14.5840 C   0  0  0  0  0  0  0  0  0  0  0  0
   -2.4490   -1.8030   13.9180 C   0  0  0  0  0  0  0  0  0  0  0  0
   -1.7630   -0.6000   13.6920 C   0  0  0  0  0  0  0  0  0  0  0  0
   -0.4360   -0.4650   14.1350 C   0  0  0  0  0  0  0  0  0  0  0  0
   -3.7700   -1.9290   13.4730 O   0  0  0  0  0  0  0  0  0  0  0  0
   -4.2470   -3.0880   12.8020 C   0  0  0  0  0  0  0  0  0  0  0  0
   -2.4140    0.4450   13.0270 O   0  0  0  0  0  0  0  0  0  0  0  0
   -1.8350    1.1370   11.9290 C   0  0  0  0  0  0  0  0  0  0  0  0
    6.3090   -0.9832   17.0948 H   0  0  0  0  0  0  0  0  0  0  0  0
    1.8806   -1.9098   16.0157 H   0  0  0  0  0  0  0  0  0  0  0  0
    5.1862    2.0486   13.2896 H   0  0  0  0  0  0  0  0  0  0  0  0
    6.7782    0.9172   15.2575 H   0  0  0  0  0  0  0  0  0  0  0  0
    4.7440    2.1506   11.1111 H   0  0  0  0  0  0  0  0  0  0  0  0
    4.1275    3.6410    9.1734 H   0  0  0  0  0  0  0  0  0  0  0  0
   -0.9951    4.0757   10.9347 H   0  0  0  0  0  0  0  0  0  0  0  0
    2.0054    5.0203    8.1143 H   0  0  0  0  0  0  0  0  0  0  0  0
    0.6600    2.4192   12.6258 H   0  0  0  0  0  0  0  0  0  0  0  0
    0.0138   -3.5413   15.5406 H   0  0  0  0  0  0  0  0  0  0  0  0
   -2.3366   -3.7995   14.7635 H   0  0  0  0  0  0  0  0  0  0  0  0
    0.1023    0.4776   13.9570 H   0  0  0  0  0  0  0  0  0  0  0  0
   -4.5563   -3.8396   13.5432 H   0  0  0  0  0  0  0  0  0  0  0  0
   -5.1074   -2.8188   12.1718 H   0  0  0  0  0  0  0  0  0  0  0  0
   -3.4463   -3.5024   12.1718 H   0  0  0  0  0  0  0  0  0  0  0  0
   -1.1714    1.9301   12.3041 H   0  0  0  0  0  0  0  0  0  0  0  0
   -1.2539    0.4319   11.3165 H   0  0  0  0  0  0  0  0  0  0  0  0
   -2.6315    1.5846   11.3165 H   0  0  0  0  0  0  0  0  0  0  0  0
  1  2  1  0
  1 10  2  0
  2  3  2  0
  3  4  1  0
  3  9  1  0
  4  5  1  0
  4  6  2  0
  5 20  1  0
  6  7  1  0
  7  8  2  0
  7 11  1  0
  8  9  1  0
  9 10  1  0
 11 12  2  0
 11 19  1  0
 12 13  1  0
 13 14  2  0
 14 15  1  0
 14 18  1  0
 15 19  2  0
 15 16  1  0
 16 17  2  0
 17 18  1  0
 20 21  2  0
 20 25  1  0
 21 22  1  0
 22 23  2  0
 23 24  1  0
 23 26  1  0
 24 25  2  0
 24 28  1  0
 26 27  1  0
 28 29  1  0
  1 30  1  0
  5 31  1  0
  8 32  1  0
 10 33  1  0
 12 34  1  0
 13 35  1  0
 16 36  1  0
 18 37  1  0
 19 38  1  0
 21 39  1  0
 22 40  1  0
 25 41  1  0
 27 42  1  0
 27 43  1  0
 27 44  1  0
 29 45  1  0
 29 46  1  0
 29 47  1  0
M  END
>  <s_m_entry_id>  (3) 
227

>  <MODEL>  (3) 
1

>  <REMARK>  (3) 
 VINA RESULT:    -9.229      0.000      0.000
 INTER + INTRA:         -12.031
 INTER:                 -11.662
 INTRA:                  -0.369
 UNBOUND:                -0.645
  Name = /scratch/kmzp800/tmpu5rvcrwn/tmpakauggfo.pdb
  6 active torsions:
  status: ('A' for Active; 'I' for Inactive)
    1  A    between atoms: N2_5  and  C4_6
    2  A    between atoms: C7_9  and  O1_10
    3  A    between atoms: O1_10  and  C8_11
    4  A    between atoms: C9_12  and  O2_13
    5  A    between atoms: O2_13  and  C10_14
    6  A    between atoms: C12_17  and  C13_18
                            x       y       z     vdW  Elec       q    Type
                         _______ _______ _______ _____ _____    ______ ____

>  <TORSDO>  (3) 
F 4

>  <grid_id>  (3) 
syk-prepared

>  <grid_path>  (3) 
syk_vina.pdbqt

>  <grid_filename>  (3) 
syk_vina.pdbqt

>  <docking_score>  (3) 
-9.229

>  <compound_name>  (3) 
CHEMBL3265021

>  <index_string>  (3) 
2:0:0

>  <s_m_Source_Path>  (3) 
/projects/mai/users/kmzp800_harry/pmx_colab/docking_jobs/syk/vina_prep/output

>  <s_m_Source_File>  (3) 
ptp1b_docked_conformers.sdf

>  <i_m_Source_File_Index>  (3) 
51

$$$$
CHEMBL3265016
     RDKit          3D

 48 52  0  0  1  0  0  0  0  0999 V2000
    5.6150   -0.5820   16.3400 C   0  0  0  0  0  0  0  0  0  0  0  0
    4.3420   -1.0390   16.2320 N   0  0  0  0  0  0  0  0  0  0  0  0
    3.8290   -0.3110   15.2250 C   0  0  0  0  0  0  0  0  0  0  0  0
    2.5380   -0.3920   14.7110 C   0  0  0  0  0  0  0  0  0  0  0  0
    1.5930   -1.3240   15.2560 N   0  0  0  0  0  0  0  0  0  0  0  0
    2.2140    0.4420   13.6780 N   0  0  0  0  0  0  0  0  0  0  0  0
    3.1100    1.3350   13.1500 C   0  0  0  0  0  0  0  0  0  0  0  0
    4.4100    1.3950   13.6900 C   0  0  0  0  0  0  0  0  0  0  0  0
    4.7040    0.5580   14.7120 N   0  0  0  0  0  0  0  0  0  0  0  0
    5.8480    0.4150   15.3950 C   0  0  0  0  0  0  0  0  0  0  0  0
    2.7060    2.2140   12.0340 C   0  0  0  0  0  0  0  0  0  0  0  0
    3.6590    2.5970   11.0570 C   0  0  0  0  0  0  0  0  0  0  0  0
    3.3010    3.4330    9.9850 C   0  0  0  0  0  0  0  0  0  0  0  0
    1.9810    3.8690    9.9210 C   0  0  0  0  0  0  0  0  0  0  0  0
    1.3650    4.6790    8.9990 C   0  0  0  0  0  0  0  0  0  0  0  0
    0.0460    4.7630    9.4520 C   0  0  0  0  0  0  0  0  0  0  0  0
   -0.1430    4.0460   10.5880 N   0  0  0  0  0  0  0  0  0  0  0  0
    1.0550    3.5080   10.8550 C   0  0  0  0  0  0  0  0  0  0  0  0
    1.3770    2.6820   11.9280 C   0  0  0  0  0  0  0  0  0  0  0  0
    0.2350   -1.5250   14.8390 C   0  0  0  0  0  0  0  0  0  0  0  0
   -0.4440   -2.7280   15.0680 C   0  0  0  0  0  0  0  0  0  0  0  0
   -1.7670   -2.8830   14.6470 C   0  0  0  0  0  0  0  0  0  0  0  0
   -2.4300   -1.8370   13.9880 C   0  0  0  0  0  0  0  0  0  0  0  0
   -1.7560   -0.6290   13.7550 C   0  0  0  0  0  0  0  0  0  0  0  0
   -0.4260   -0.4820   14.1820 C   0  0  0  0  0  0  0  0  0  0  0  0
   -3.7550   -1.9750   13.5590 O   0  0  0  0  0  0  0  0  0  0  0  0
   -4.2030   -3.0850   12.7930 C   0  0  0  0  0  0  0  0  0  0  0  0
   -2.4250    0.4100   13.0960 O   0  0  0  0  0  0  0  0  0  0  0  0
   -1.8760    1.0870   11.9740 C   0  0  0  0  0  0  0  0  0  0  0  0
    6.3554   -0.9457   17.0677 H   0  0  0  0  0  0  0  0  0  0  0  0
    1.9262   -1.9136   16.0320 H   0  0  0  0  0  0  0  0  0  0  0  0
    5.1591    2.0970   13.2950 H   0  0  0  0  0  0  0  0  0  0  0  0
    6.7834    0.9728   15.2406 H   0  0  0  0  0  0  0  0  0  0  0  0
    4.6943    2.2346   11.1389 H   0  0  0  0  0  0  0  0  0  0  0  0
    4.0375    3.7316    9.2245 H   0  0  0  0  0  0  0  0  0  0  0  0
    1.8074    5.1520    8.1099 H   0  0  0  0  0  0  0  0  0  0  0  0
   -0.7434    5.3404    8.9486 H   0  0  0  0  0  0  0  0  0  0  0  0
   -1.0146    3.9388   11.1263 H   0  0  0  0  0  0  0  0  0  0  0  0
    0.6178    2.4013   12.6729 H   0  0  0  0  0  0  0  0  0  0  0  0
    0.0670   -3.5554   15.5821 H   0  0  0  0  0  0  0  0  0  0  0  0
   -2.2922   -3.8313   14.8334 H   0  0  0  0  0  0  0  0  0  0  0  0
    0.1023    0.4650   13.9974 H   0  0  0  0  0  0  0  0  0  0  0  0
   -4.5278   -3.8898   13.4689 H   0  0  0  0  0  0  0  0  0  0  0  0
   -5.0468   -2.7761   12.1586 H   0  0  0  0  0  0  0  0  0  0  0  0
   -3.3811   -3.4484   12.1586 H   0  0  0  0  0  0  0  0  0  0  0  0
   -1.2185    1.8978   12.3207 H   0  0  0  0  0  0  0  0  0  0  0  0
   -1.2946    0.3780   11.3663 H   0  0  0  0  0  0  0  0  0  0  0  0
   -2.6898    1.5094   11.3663 H   0  0  0  0  0  0  0  0  0  0  0  0
  1  2  1  0
  1 10  2  0
  2  3  2  0
  3  4  1  0
  3  9  1  0
  4  5  1  0
  4  6  2  0
  5 20  1  0
  6  7  1  0
  7  8  2  0
  7 11  1  0
  8  9  1  0
  9 10  1  0
 11 12  2  0
 11 19  1  0
 12 13  1  0
 13 14  2  0
 14 18  1  0
 14 15  1  0
 15 16  2  0
 16 17  1  0
 17 18  1  0
 18 19  2  0
 20 21  2  0
 20 25  1  0
 21 22  1  0
 22 23  2  0
 23 24  1  0
 23 26  1  0
 24 25  2  0
 24 28  1  0
 26 27  1  0
 28 29  1  0
  1 30  1  0
  5 31  1  0
  8 32  1  0
 10 33  1  0
 12 34  1  0
 13 35  1  0
 15 36  1  0
 16 37  1  0
 17 38  1  0
 19 39  1  0
 21 40  1  0
 22 41  1  0
 25 42  1  0
 27 43  1  0
 27 44  1  0
 27 45  1  0
 29 46  1  0
 29 47  1  0
 29 48  1  0
M  END
>  <s_m_entry_id>  (4) 
260

>  <MODEL>  (4) 
1

>  <REMARK>  (4) 
 VINA RESULT:    -9.771      0.000      0.000
 INTER + INTRA:         -12.194
 INTER:                 -11.814
 INTRA:                  -0.380
 UNBOUND:                -0.138
  Name = /scratch/kmzp800/tmp9t2klglj/tmpdsotmlg_.pdb
  6 active torsions:
  status: ('A' for Active; 'I' for Inactive)
    1  A    between atoms: N2_5  and  C4_6
    2  A    between atoms: C7_9  and  O1_10
    3  A    between atoms: O1_10  and  C8_11
    4  A    between atoms: C9_12  and  O2_13
    5  A    between atoms: O2_13  and  C10_14
    6  A    between atoms: C12_17  and  C13_18
                            x       y       z     vdW  Elec       q    Type
                         _______ _______ _______ _____ _____    ______ ____

>  <TORSDO>  (4) 
F 4

>  <grid_id>  (4) 
syk-prepared

>  <grid_path>  (4) 
syk_vina.pdbqt

>  <grid_filename>  (4) 
syk_vina.pdbqt

>  <docking_score>  (4) 
-9.771

>  <compound_name>  (4) 
CHEMBL3265016

>  <index_string>  (4) 
3:0:0

>  <s_m_Source_Path>  (4) 
/projects/mai/users/kmzp800_harry/pmx_colab/docking_jobs/syk/vina_prep/output

>  <s_m_Source_File>  (4) 
ptp1b_docked_conformers.sdf

>  <i_m_Source_File_Index>  (4) 
84

$$$$
CHEMBL3265028
     RDKit          3D

 43 47  0  0  1  0  0  0  0  0999 V2000
    5.8080   -0.4950   16.3750 C   0  0  0  0  0  0  0  0  0  0  0  0
    4.5440   -0.9810   16.2930 N   0  0  0  0  0  0  0  0  0  0  0  0
    4.0020   -0.2840   15.2790 C   0  0  0  0  0  0  0  0  0  0  0  0
    2.7060   -0.4010   14.7840 C   0  0  0  0  0  0  0  0  0  0  0  0
    1.7890   -1.3430   15.3600 N   0  0  0  0  0  0  0  0  0  0  0  0
    2.3520    0.4070   13.7410 N   0  0  0  0  0  0  0  0  0  0  0  0
    3.2210    1.3080   13.1850 C   0  0  0  0  0  0  0  0  0  0  0  0
    4.5260    1.4070   13.7060 C   0  0  0  0  0  0  0  0  0  0  0  0
    4.8520    0.5940   14.7400 N   0  0  0  0  0  0  0  0  0  0  0  0
    6.0070    0.4880   15.4090 C   0  0  0  0  0  0  0  0  0  0  0  0
    2.7850    2.1580   12.0580 C   0  0  0  0  0  0  0  0  0  0  0  0
    3.7240    2.5510   11.0670 C   0  0  0  0  0  0  0  0  0  0  0  0
    3.3390    3.3600    9.9820 C   0  0  0  0  0  0  0  0  0  0  0  0
    2.0070    3.7550    9.9250 C   0  0  0  0  0  0  0  0  0  0  0  0
    1.3250    4.5290    9.0160 C   0  0  0  0  0  0  0  0  0  0  0  0
    0.0390    4.5940    9.4470 N   0  0  0  0  0  0  0  0  0  0  0  0
   -0.1030    3.8990   10.5730 N   0  0  0  0  0  0  0  0  0  0  0  0
    1.0980    3.3850   10.8680 C   0  0  0  0  0  0  0  0  0  0  0  0
    1.4420    2.5860   11.9540 C   0  0  0  0  0  0  0  0  0  0  0  0
    0.4310   -1.5800   14.9640 C   0  0  0  0  0  0  0  0  0  0  0  0
   -0.2190   -2.7970   15.2220 C   0  0  0  0  0  0  0  0  0  0  0  0
   -1.5430   -2.9890   14.8200 C   0  0  0  0  0  0  0  0  0  0  0  0
   -2.2280   -1.9680   14.1580 C   0  0  0  0  0  0  0  0  0  0  0  0
   -1.5940   -0.7500   13.8940 C   0  0  0  0  0  0  0  0  0  0  0  0
   -0.2620   -0.5630   14.3000 C   0  0  0  0  0  0  0  0  0  0  0  0
   -2.3060    0.2530   13.2290 O   0  0  0  0  0  0  0  0  0  0  0  0
   -1.7870    0.9420   12.1000 C   0  0  0  0  0  0  0  0  0  0  0  0
    6.5655   -0.8289   17.0993 H   0  0  0  0  0  0  0  0  0  0  0  0
    2.1447   -1.9103   16.1426 H   0  0  0  0  0  0  0  0  0  0  0  0
    5.2539    2.1183   13.2887 H   0  0  0  0  0  0  0  0  0  0  0  0
    6.9282    1.0622   15.2312 H   0  0  0  0  0  0  0  0  0  0  0  0
    4.7690    2.2175   11.1492 H   0  0  0  0  0  0  0  0  0  0  0  0
    4.0613    3.6670    9.2113 H   0  0  0  0  0  0  0  0  0  0  0  0
    1.7405    5.0034    8.1147 H   0  0  0  0  0  0  0  0  0  0  0  0
   -0.9710    3.7792   11.1144 H   0  0  0  0  0  0  0  0  0  0  0  0
    0.6936    2.2971   12.7066 H   0  0  0  0  0  0  0  0  0  0  0  0
    0.3170   -3.6038   15.7434 H   0  0  0  0  0  0  0  0  0  0  0  0
   -2.0464   -3.9453   15.0251 H   0  0  0  0  0  0  0  0  0  0  0  0
   -3.2705   -2.1225   13.8429 H   0  0  0  0  0  0  0  0  0  0  0  0
    0.2409    0.3933   14.0934 H   0  0  0  0  0  0  0  0  0  0  0  0
   -1.1572    1.7780   12.4383 H   0  0  0  0  0  0  0  0  0  0  0  0
   -1.1836    0.2503   11.4938 H   0  0  0  0  0  0  0  0  0  0  0  0
   -2.6184    1.3311   11.4938 H   0  0  0  0  0  0  0  0  0  0  0  0
  1  2  1  0
  1 10  2  0
  2  3  2  0
  3  4  1  0
  3  9  1  0
  4  5  1  0
  4  6  2  0
  5 20  1  0
  6  7  1  0
  7  8  2  0
  7 11  1  0
  8  9  1  0
  9 10  1  0
 11 12  2  0
 11 19  1  0
 12 13  1  0
 13 14  2  0
 14 18  1  0
 14 15  1  0
 15 16  2  0
 16 17  1  0
 17 18  1  0
 18 19  2  0
 20 21  2  0
 20 25  1  0
 21 22  1  0
 22 23  2  0
 23 24  1  0
 24 25  2  0
 24 26  1  0
 26 27  1  0
  1 28  1  0
  5 29  1  0
  8 30  1  0
 10 31  1  0
 12 32  1  0
 13 33  1  0
 15 34  1  0
 17 35  1  0
 19 36  1  0
 21 37  1  0
 22 38  1  0
 23 39  1  0
 25 40  1  0
 27 41  1  0
 27 42  1  0
 27 43  1  0
M  END
>  <s_m_entry_id>  (5) 
291

>  <MODEL>  (5) 
2

>  <REMARK>  (5) 
 VINA RESULT:    -9.091      2.008      5.985
 INTER + INTRA:         -11.366
 INTER:                 -11.099
 INTRA:                  -0.267
 UNBOUND:                -0.680
  Name = /scratch/kmzp800/tmpg6g6fjy9/tmp1yxzlqsb.pdb
  4 active torsions:
  status: ('A' for Active; 'I' for Inactive)
    1  A    between atoms: N2_5  and  C4_6
    2  A    between atoms: C8_10  and  O1_11
    3  A    between atoms: O1_11  and  C9_12
    4  A    between atoms: C11_15  and  C12_16
                            x       y       z     vdW  Elec       q    Type
                         _______ _______ _______ _____ _____    ______ ____

>  <TORSDO>  (5) 
F 3

>  <grid_id>  (5) 
syk-prepared

>  <grid_path>  (5) 
syk_vina.pdbqt

>  <grid_filename>  (5) 
syk_vina.pdbqt

>  <docking_score>  (5) 
-9.091

>  <compound_name>  (5) 
CHEMBL3265028

>  <index_string>  (5) 
4:0:1

>  <s_m_Source_Path>  (5) 
/projects/mai/users/kmzp800_harry/pmx_colab/docking_jobs/syk/vina_prep/output

>  <s_m_Source_File>  (5) 
ptp1b_docked_conformers.sdf

>  <i_m_Source_File_Index>  (5) 
115

$$$$
CHEMBL3265012
     RDKit          3D

 48 51  0  0  1  0  0  0  0  0999 V2000
    5.5720   -0.5830   16.2360 C   0  0  0  0  0  0  0  0  0  0  0  0
    4.3100   -1.0780   16.1750 N   0  0  0  0  0  0  0  0  0  0  0  0
    3.7330   -0.3510   15.2020 C   0  0  0  0  0  0  0  0  0  0  0  0
    2.4240   -0.4650   14.7420 C   0  0  0  0  0  0  0  0  0  0  0  0
    1.5320   -1.4340   15.3110 N   0  0  0  0  0  0  0  0  0  0  0  0
    2.0310    0.3760   13.7390 N   0  0  0  0  0  0  0  0  0  0  0  0
    2.8760    1.3040   13.1890 C   0  0  0  0  0  0  0  0  0  0  0  0
    4.1950    1.3970   13.6740 C   0  0  0  0  0  0  0  0  0  0  0  0
    4.5580    0.5520   14.6680 N   0  0  0  0  0  0  0  0  0  0  0  0
    5.7330    0.4340   15.2990 C   0  0  0  0  0  0  0  0  0  0  0  0
    2.3980    2.1880   12.1050 C   0  0  0  0  0  0  0  0  0  0  0  0
    1.0470    2.5510   12.0390 C   0  0  0  0  0  0  0  0  0  0  0  0
    0.5890    3.3860   11.0180 C   0  0  0  0  0  0  0  0  0  0  0  0
    1.4670    3.8770   10.0400 C   0  0  0  0  0  0  0  0  0  0  0  0
    2.8280    3.5110   10.1060 C   0  0  0  0  0  0  0  0  0  0  0  0
    3.7250    3.9530    9.1910 F   0  0  0  0  0  0  0  0  0  0  0  0
    3.2810    2.6760   11.1310 C   0  0  0  0  0  0  0  0  0  0  0  0
    0.9330    4.7590    8.9770 C   0  0  0  0  0  0  0  0  0  0  0  0
    1.4540    5.8880    8.7740 O   0  0  0  0  0  0  0  0  0  0  0  0
   -0.1680    4.3550    8.1690 N   0  0  0  0  0  0  0  0  0  0  0  0
    0.1650   -1.6710   14.9480 C   0  0  0  0  0  0  0  0  0  0  0  0
   -0.4740   -2.8910   15.2080 C   0  0  0  0  0  0  0  0  0  0  0  0
   -1.8060   -3.0830   14.8380 C   0  0  0  0  0  0  0  0  0  0  0  0
   -2.5230   -2.0570   14.2030 C   0  0  0  0  0  0  0  0  0  0  0  0
   -1.8900   -0.8320   13.9400 C   0  0  0  0  0  0  0  0  0  0  0  0
   -0.5490   -0.6490   14.3160 C   0  0  0  0  0  0  0  0  0  0  0  0
   -3.8590   -2.2310   13.8250 O   0  0  0  0  0  0  0  0  0  0  0  0
   -4.2660   -3.1920   12.8610 C   0  0  0  0  0  0  0  0  0  0  0  0
   -2.6100    0.1880   13.3070 O   0  0  0  0  0  0  0  0  0  0  0  0
   -2.0790    0.9550   12.2360 C   0  0  0  0  0  0  0  0  0  0  0  0
    6.3539   -0.9342   16.9254 H   0  0  0  0  0  0  0  0  0  0  0  0
    1.9156   -2.0243   16.0628 H   0  0  0  0  0  0  0  0  0  0  0  0
    4.9043    2.1291   13.2606 H   0  0  0  0  0  0  0  0  0  0  0  0
    6.6435    1.0229   15.1140 H   0  0  0  0  0  0  0  0  0  0  0  0
    0.3425    2.1760   12.7960 H   0  0  0  0  0  0  0  0  0  0  0  0
   -0.4749    3.6627   10.9799 H   0  0  0  0  0  0  0  0  0  0  0  0
    4.3444    2.3979   11.1743 H   0  0  0  0  0  0  0  0  0  0  0  0
   -0.5254    4.9824    7.4345 H   0  0  0  0  0  0  0  0  0  0  0  0
   -0.6069    3.4354    8.3192 H   0  0  0  0  0  0  0  0  0  0  0  0
    0.0774   -3.7018   15.7065 H   0  0  0  0  0  0  0  0  0  0  0  0
   -2.2973   -4.0451   15.0455 H   0  0  0  0  0  0  0  0  0  0  0  0
   -0.0541    0.3116   14.1103 H   0  0  0  0  0  0  0  0  0  0  0  0
   -4.6455   -4.0880   13.3740 H   0  0  0  0  0  0  0  0  0  0  0  0
   -5.0609   -2.7658   12.2313 H   0  0  0  0  0  0  0  0  0  0  0  0
   -3.4068   -3.4663   12.2313 H   0  0  0  0  0  0  0  0  0  0  0  0
   -1.4968    1.7960   12.6407 H   0  0  0  0  0  0  0  0  0  0  0  0
   -1.4260    0.3203   11.6189 H   0  0  0  0  0  0  0  0  0  0  0  0
   -2.9029    1.3428   11.6189 H   0  0  0  0  0  0  0  0  0  0  0  0
  1  2  1  0
  1 10  2  0
  2  3  2  0
  3  4  1  0
  3  9  1  0
  4  5  1  0
  4  6  2  0
  5 21  1  0
  6  7  1  0
  7  8  2  0
  7 11  1  0
  8  9  1  0
  9 10  1  0
 11 12  2  0
 11 17  1  0
 12 13  1  0
 13 14  2  0
 14 15  1  0
 14 18  1  0
 15 17  2  0
 15 16  1  0
 18 19  2  0
 18 20  1  0
 21 22  2  0
 21 26  1  0
 22 23  1  0
 23 24  2  0
 24 25  1  0
 24 27  1  0
 25 26  2  0
 25 29  1  0
 27 28  1  0
 29 30  1  0
  1 31  1  0
  5 32  1  0
  8 33  1  0
 10 34  1  0
 12 35  1  0
 13 36  1  0
 17 37  1  0
 20 38  1  0
 20 39  1  0
 22 40  1  0
 23 41  1  0
 26 42  1  0
 28 43  1  0
 28 44  1  0
 28 45  1  0
 30 46  1  0
 30 47  1  0
 30 48  1  0
M  END
>  <s_m_entry_id>  (6) 
331

>  <MODEL>  (6) 
1

>  <REMARK>  (6) 
 VINA RESULT:    -9.319      0.000      0.000
 INTER + INTRA:         -12.309
 INTER:                 -11.980
 INTRA:                  -0.329
 UNBOUND:                -0.266
  Name = /scratch/kmzp800/tmpg2xlt3gk/tmpeb6i3nxa.pdb
  7 active torsions:
  status: ('A' for Active; 'I' for Inactive)
    1  A    between atoms: N2_5  and  C4_6
    2  A    between atoms: C7_9  and  O1_10
    3  A    between atoms: O1_10  and  C8_11
    4  A    between atoms: C9_12  and  O2_13
    5  A    between atoms: O2_13  and  C10_14
    6  A    between atoms: C12_17  and  C13_18
    7  A    between atoms: C16_21  and  C17_22
                            x       y       z     vdW  Elec       q    Type
                         _______ _______ _______ _____ _____    ______ ____

>  <TORSDO>  (6) 
F 5

>  <grid_id>  (6) 
syk-prepared

>  <grid_path>  (6) 
syk_vina.pdbqt

>  <grid_filename>  (6) 
syk_vina.pdbqt

>  <docking_score>  (6) 
-9.319

>  <compound_name>  (6) 
CHEMBL3265012

>  <index_string>  (6) 
5:0:0

>  <s_m_Source_Path>  (6) 
/projects/mai/users/kmzp800_harry/pmx_colab/docking_jobs/syk/vina_prep/output

>  <s_m_Source_File>  (6) 
ptp1b_docked_conformers.sdf

>  <i_m_Source_File_Index>  (6) 
155

$$$$
CHEMBL3265004
     RDKit          3D

 65 70  0  0  1  0  0  0  0  0999 V2000
   -1.4260   -0.7200   13.7460 C   0  0  0  0  0  0  0  0  0  0  0  0
   -1.7600   -1.9280   14.3750 C   0  0  0  0  0  0  0  0  0  0  0  0
   -0.7920   -2.6470   15.0810 C   0  0  0  0  0  0  0  0  0  0  0  0
    0.5160   -2.1640   15.1630 C   0  0  0  0  0  0  0  0  0  0  0  0
    0.8680   -0.9570   14.5400 C   0  0  0  0  0  0  0  0  0  0  0  0
   -0.1110   -0.2430   13.8340 C   0  0  0  0  0  0  0  0  0  0  0  0
    2.2470   -0.4330   14.6180 C   0  0  0  0  0  0  0  0  0  0  0  0
    2.6660    0.5240   13.7300 N   0  0  0  0  0  0  0  0  0  0  0  0
    3.9290    1.0430   13.7550 C   0  0  0  0  0  0  0  0  0  0  0  0
    4.3540    2.0440   12.8200 N   0  0  0  0  0  0  0  0  0  0  0  0
    4.8020    0.5650   14.7300 C   0  0  0  0  0  0  0  0  0  0  0  0
    6.0760    0.9440   14.9240 N   0  0  0  0  0  0  0  0  0  0  0  0
    6.4760    0.1910   15.9810 C   0  0  0  0  0  0  0  0  0  0  0  0
    5.4320   -0.6290   16.4060 C   0  0  0  0  0  0  0  0  0  0  0  0
    4.3970   -0.3670   15.5970 N   0  0  0  0  0  0  0  0  0  0  0  0
    3.1510   -0.8970   15.5930 C   0  0  0  0  0  0  0  0  0  0  0  0
    3.5740    2.6290   11.7680 C   0  0  0  0  0  0  0  0  0  0  0  0
    4.1310    2.9680   10.5290 C   0  0  0  0  0  0  0  0  0  0  0  0
    3.3380    3.5360    9.5290 C   0  0  0  0  0  0  0  0  0  0  0  0
    1.9730    3.7740    9.7550 C   0  0  0  0  0  0  0  0  0  0  0  0
    1.4070    3.4370   10.9940 C   0  0  0  0  0  0  0  0  0  0  0  0
    2.2140    2.8660   11.9920 C   0  0  0  0  0  0  0  0  0  0  0  0
    1.1630    4.3420    8.7650 O   0  0  0  0  0  0  0  0  0  0  0  0
    0.1870    3.5960    8.0490 C   0  0  0  0  0  0  0  0  0  0  0  0
    0.0460    3.6760   11.2110 O   0  0  0  0  0  0  0  0  0  0  0  0
   -0.4870    4.9830   11.3830 C   0  0  0  0  0  0  0  0  0  0  0  0
   -2.1840    1.3990   12.6210 N   0  0  0  0  0  0  0  0  0  0  0  0
   -2.4450    0.0400   13.0020 C   0  0  0  0  0  0  0  0  0  0  0  0
   -3.5410   -0.5100   12.7070 O   0  0  0  0  0  0  0  0  0  0  0  0
   -4.7880    4.0390   10.5470 C   0  0  0  0  0  0  0  0  0  0  0  0
   -4.2610    2.9200    9.8870 C   0  0  0  0  0  0  0  0  0  0  0  0
   -3.4040    2.0440   10.5590 C   0  0  0  0  0  0  0  0  0  0  0  0
   -3.0610    2.2750   11.8990 C   0  0  0  0  0  0  0  0  0  0  0  0
   -3.5870    3.3920   12.5560 C   0  0  0  0  0  0  0  0  0  0  0  0
   -4.4450    4.2680   11.8870 C   0  0  0  0  0  0  0  0  0  0  0  0
   -6.4950    4.6660    8.7580 C   0  0  0  0  0  0  0  0  0  0  0  0
   -7.1560    5.7910    8.4240 N   0  0  0  0  0  0  0  0  0  0  0  0
   -6.8010    6.7660    9.2460 N   0  0  0  0  0  0  0  0  0  0  0  0
   -5.9030    6.2960   10.1310 C   0  0  0  0  0  0  0  0  0  0  0  0
   -5.6910    4.9620    9.8410 C   0  0  0  0  0  0  0  0  0  0  0  0
   -2.7891   -2.3114   14.3123 H   0  0  0  0  0  0  0  0  0  0  0  0
   -1.0602   -3.5939   15.5724 H   0  0  0  0  0  0  0  0  0  0  0  0
    1.2750   -2.7334   15.7195 H   0  0  0  0  0  0  0  0  0  0  0  0
    0.1567    0.7041   13.3427 H   0  0  0  0  0  0  0  0  0  0  0  0
    5.3235    2.3788   12.9140 H   0  0  0  0  0  0  0  0  0  0  0  0
    7.4773    0.2234   16.4353 H   0  0  0  0  0  0  0  0  0  0  0  0
    5.4537   -1.3473   17.2388 H   0  0  0  0  0  0  0  0  0  0  0  0
    2.8554   -1.6628   16.3253 H   0  0  0  0  0  0  0  0  0  0  0  0
    5.1996    2.7860   10.3419 H   0  0  0  0  0  0  0  0  0  0  0  0
    3.7856    3.7983    8.5590 H   0  0  0  0  0  0  0  0  0  0  0  0
    1.7701    2.6016   12.9631 H   0  0  0  0  0  0  0  0  0  0  0  0
   -0.4796    3.0865    8.7604 H   0  0  0  0  0  0  0  0  0  0  0  0
   -0.4026    4.2758    7.4164 H   0  0  0  0  0  0  0  0  0  0  0  0
    0.6882    2.8486    7.4164 H   0  0  0  0  0  0  0  0  0  0  0  0
   -0.5771    5.2039   12.4568 H   0  0  0  0  0  0  0  0  0  0  0  0
    0.1835    5.7173   10.9126 H   0  0  0  0  0  0  0  0  0  0  0  0
   -1.4798    5.0390   10.9126 H   0  0  0  0  0  0  0  0  0  0  0  0
   -1.2699    1.7864   12.8951 H   0  0  0  0  0  0  0  0  0  0  0  0
   -4.5232    2.7306    8.8356 H   0  0  0  0  0  0  0  0  0  0  0  0
   -2.9960    1.1679   10.0336 H   0  0  0  0  0  0  0  0  0  0  0  0
   -3.3232    3.5820   13.6069 H   0  0  0  0  0  0  0  0  0  0  0  0
   -4.8539    5.1424   12.4145 H   0  0  0  0  0  0  0  0  0  0  0  0
   -6.5801    3.6894    8.2590 H   0  0  0  0  0  0  0  0  0  0  0  0
   -7.1562    7.7322    9.2133 H   0  0  0  0  0  0  0  0  0  0  0  0
   -5.4247    6.8696   10.9386 H   0  0  0  0  0  0  0  0  0  0  0  0
  1  6  1  0
  1  2  2  0
  1 28  1  0
  2  3  1  0
  3  4  2  0
  4  5  1  0
  5  7  1  0
  5  6  2  0
  7 16  2  0
  7  8  1  0
  8  9  2  0
  9 11  1  0
  9 10  1  0
 10 17  1  0
 11 12  2  0
 11 15  1  0
 12 13  1  0
 13 14  2  0
 14 15  1  0
 15 16  1  0
 17 22  1  0
 17 18  2  0
 18 19  1  0
 19 20  2  0
 20 21  1  0
 20 23  1  0
 21 25  1  0
 21 22  2  0
 23 24  1  0
 25 26  1  0
 27 28  1  0
 27 33  1  0
 28 29  2  0
 30 35  1  0
 30 31  2  0
 30 40  1  0
 31 32  1  0
 32 33  2  0
 33 34  1  0
 34 35  2  0
 36 40  1  0
 36 37  2  0
 37 38  1  0
 38 39  1  0
 39 40  2  0
  2 41  1  0
  3 42  1  0
  4 43  1  0
  6 44  1  0
 10 45  1  0
 13 46  1  0
 14 47  1  0
 16 48  1  0
 18 49  1  0
 19 50  1  0
 22 51  1  0
 24 52  1  0
 24 53  1  0
 24 54  1  0
 26 55  1  0
 26 56  1  0
 26 57  1  0
 27 58  1  0
 31 59  1  0
 32 60  1  0
 34 61  1  0
 35 62  1  0
 36 63  1  0
 38 64  1  0
 39 65  1  0
M  END
>  <s_m_entry_id>  (7) 
361

>  <MODEL>  (7) 
2

>  <REMARK>  (7) 
 VINA RESULT:    -9.287      3.490      7.809
 INTER + INTRA:         -12.928
 INTER:                 -11.814
 INTRA:                  -1.114
 UNBOUND:                 0.159
  Name = /scratch/kmzp800/tmpejou3907/tmpyzkcp4vp.pdb
  9 active torsions:
  status: ('A' for Active; 'I' for Inactive)
    1  A    between atoms: C3_5  and  C4_6
    2  A    between atoms: C7_9  and  N3_10
    3  A    between atoms: C8_11  and  C9_13
    4  A    between atoms: C13_17  and  C14_18
    5  A    between atoms: N5_21  and  C16_22
    6  A    between atoms: C19_25  and  O2_26
    7  A    between atoms: O2_26  and  C20_27
    8  A    between atoms: C21_28  and  O3_29
    9  A    between atoms: O3_29  and  C22_30
                            x       y       z     vdW  Elec       q    Type
                         _______ _______ _______ _____ _____    ______ ____

>  <TORSDO>  (7) 
F 7

>  <grid_id>  (7) 
syk-prepared

>  <grid_path>  (7) 
syk_vina.pdbqt

>  <grid_filename>  (7) 
syk_vina.pdbqt

>  <docking_score>  (7) 
-9.287

>  <compound_name>  (7) 
CHEMBL3265004

>  <index_string>  (7) 
6:0:1

>  <s_m_Source_Path>  (7) 
/projects/mai/users/kmzp800_harry/pmx_colab/docking_jobs/syk/vina_prep/output

>  <s_m_Source_File>  (7) 
ptp1b_docked_conformers.sdf

>  <i_m_Source_File_Index>  (7) 
185

$$$$
CHEMBL3265031
     RDKit          3D

 58 63  0  0  1  0  0  0  0  0999 V2000
    1.7960   -1.4000   15.4450 N   0  0  0  0  0  0  0  0  0  0  0  0
    2.6600   -0.4340   14.8290 C   0  0  0  0  0  0  0  0  0  0  0  0
    2.2370    0.3600   13.8020 N   0  0  0  0  0  0  0  0  0  0  0  0
    3.0550    1.2850   13.2060 C   0  0  0  0  0  0  0  0  0  0  0  0
    4.3790    1.4220   13.6690 C   0  0  0  0  0  0  0  0  0  0  0  0
    4.7720    0.6220   14.6880 N   0  0  0  0  0  0  0  0  0  0  0  0
    5.9580    0.5510   15.3060 C   0  0  0  0  0  0  0  0  0  0  0  0
    5.8300   -0.4360   16.2820 C   0  0  0  0  0  0  0  0  0  0  0  0
    4.5780   -0.9570   16.2560 N   0  0  0  0  0  0  0  0  0  0  0  0
    3.9730   -0.2780   15.2670 C   0  0  0  0  0  0  0  0  0  0  0  0
    2.5450    2.1180   12.0980 C   0  0  0  0  0  0  0  0  0  0  0  0
    3.4320    2.6550   11.1270 C   0  0  0  0  0  0  0  0  0  0  0  0
    2.9560    3.4500   10.0690 C   0  0  0  0  0  0  0  0  0  0  0  0
    1.5870    3.6840   10.0170 C   0  0  0  0  0  0  0  0  0  0  0  0
    0.8190    4.4030    9.1310 C   0  0  0  0  0  0  0  0  0  0  0  0
   -0.4660    4.2970    9.5550 N   0  0  0  0  0  0  0  0  0  0  0  0
   -0.5270    3.5530   10.6560 N   0  0  0  0  0  0  0  0  0  0  0  0
    0.7260    3.1760   10.9410 C   0  0  0  0  0  0  0  0  0  0  0  0
    1.1610    2.3860   12.0000 C   0  0  0  0  0  0  0  0  0  0  0  0
   -2.2570   -2.2840   14.4950 C   0  0  0  0  0  0  0  0  0  0  0  0
   -1.6520   -1.1260   13.9810 C   0  0  0  0  0  0  0  0  0  0  0  0
   -0.3220   -0.8240   14.2860 C   0  0  0  0  0  0  0  0  0  0  0  0
    0.4280   -1.6750   15.1100 C   0  0  0  0  0  0  0  0  0  0  0  0
   -0.1700   -2.8290   15.6230 C   0  0  0  0  0  0  0  0  0  0  0  0
   -1.5000   -3.1320   15.3190 C   0  0  0  0  0  0  0  0  0  0  0  0
   -6.0350   -4.1100   13.6670 C   0  0  0  0  0  0  0  0  0  0  0  0
   -7.5460   -4.0510   13.7160 C   0  0  0  0  0  0  0  0  0  0  0  0
   -5.5400   -3.0540   12.6720 C   0  0  0  0  0  0  0  0  0  0  0  0
   -4.0310   -2.8360   12.7890 C   0  0  0  0  0  0  0  0  0  0  0  0
   -3.6270   -2.5970   14.1800 N   0  0  0  0  0  0  0  0  0  0  0  0
   -4.6370   -2.6440   15.2390 C   0  0  0  0  0  0  0  0  0  0  0  0
   -5.4880   -3.9040   15.0900 C   0  0  0  0  0  0  0  0  0  0  0  0
   -5.6520   -5.3740   13.2180 O   0  0  0  0  0  0  0  0  0  0  0  0
    2.2018   -1.9565   16.2108 H   0  0  0  0  0  0  0  0  0  0  0  0
    5.0678    2.1521   13.2190 H   0  0  0  0  0  0  0  0  0  0  0  0
    6.8535    1.1512   15.0873 H   0  0  0  0  0  0  0  0  0  0  0  0
    6.6279   -0.7469   16.9724 H   0  0  0  0  0  0  0  0  0  0  0  0
    4.5091    2.4455   11.2039 H   0  0  0  0  0  0  0  0  0  0  0  0
    3.6383    3.8688    9.3146 H   0  0  0  0  0  0  0  0  0  0  0  0
    1.1766    4.9563    8.2501 H   0  0  0  0  0  0  0  0  0  0  0  0
   -1.3758    3.3128   11.1877 H   0  0  0  0  0  0  0  0  0  0  0  0
    0.4509    1.9830   12.7371 H   0  0  0  0  0  0  0  0  0  0  0  0
   -2.2297   -0.4507   13.3327 H   0  0  0  0  0  0  0  0  0  0  0  0
    0.1393    0.0870   13.8770 H   0  0  0  0  0  0  0  0  0  0  0  0
    0.4098   -3.5033   16.2703 H   0  0  0  0  0  0  0  0  0  0  0  0
   -1.9583   -4.0439   15.7294 H   0  0  0  0  0  0  0  0  0  0  0  0
   -7.8786   -4.0380   14.7644 H   0  0  0  0  0  0  0  0  0  0  0  0
   -7.8939   -3.1386   13.2096 H   0  0  0  0  0  0  0  0  0  0  0  0
   -7.9640   -4.9335   13.2096 H   0  0  0  0  0  0  0  0  0  0  0  0
   -5.7746   -3.3879   11.6505 H   0  0  0  0  0  0  0  0  0  0  0  0
   -6.0443   -2.1032   12.8992 H   0  0  0  0  0  0  0  0  0  0  0  0
   -3.5108   -3.7300   12.4145 H   0  0  0  0  0  0  0  0  0  0  0  0
   -3.7639   -1.9493   12.1954 H   0  0  0  0  0  0  0  0  0  0  0  0
   -4.1377   -2.6548   16.2191 H   0  0  0  0  0  0  0  0  0  0  0  0
   -5.2846   -1.7582   15.1615 H   0  0  0  0  0  0  0  0  0  0  0  0
   -6.3390   -3.8334   15.7834 H   0  0  0  0  0  0  0  0  0  0  0  0
   -4.8375   -4.7623   15.3141 H   0  0  0  0  0  0  0  0  0  0  0  0
   -5.4743   -5.9605   13.9955 H   0  0  0  0  0  0  0  0  0  0  0  0
  1  2  1  0
  1 23  1  0
  2 10  1  0
  2  3  2  0
  3  4  1  0
  4  5  2  0
  4 11  1  0
  5  6  1  0
  6 10  1  0
  6  7  1  0
  7  8  2  0
  8  9  1  0
  9 10  2  0
 11 12  2  0
 11 19  1  0
 12 13  1  0
 13 14  2  0
 14 18  1  0
 14 15  1  0
 15 16  2  0
 16 17  1  0
 17 18  1  0
 18 19  2  0
 20 25  1  0
 20 21  2  0
 20 30  1  0
 21 22  1  0
 22 23  2  0
 23 24  1  0
 24 25  2  0
 26 27  1  0
 26 32  1  0
 26 28  1  0
 26 33  1  0
 28 29  1  0
 29 30  1  0
 30 31  1  0
 31 32  1  0
  1 34  1  0
  5 35  1  0
  7 36  1  0
  8 37  1  0
 12 38  1  0
 13 39  1  0
 15 40  1  0
 17 41  1  0
 19 42  1  0
 21 43  1  0
 22 44  1  0
 24 45  1  0
 25 46  1  0
 27 47  1  0
 27 48  1  0
 27 49  1  0
 28 50  1  0
 28 51  1  0
 29 52  1  0
 29 53  1  0
 31 54  1  0
 31 55  1  0
 32 56  1  0
 32 57  1  0
 33 58  1  0
M  END
>  <s_m_entry_id>  (8) 
377

>  <MODEL>  (8) 
1

>  <REMARK>  (8) 
 VINA RESULT:   -10.124      0.000      0.000
 INTER + INTRA:         -12.417
 INTER:                 -12.006
 INTRA:                  -0.410
 UNBOUND:                -0.221
  Name = /scratch/kmzp800/tmp8eee03_t/tmprwh2_cdy.pdb
  5 active torsions:
  status: ('A' for Active; 'I' for Inactive)
    1  A    between atoms: O1_1  and  C1_2
    2  A    between atoms: C1_2  and  C2_3
    3  A    between atoms: N1_6  and  C5_7
    4  A    between atoms: C8_10  and  N2_11
    5  A    between atoms: C10_14  and  C11_15
                            x       y       z     vdW  Elec       q    Type
                         _______ _______ _______ _____ _____    ______ ____

>  <TORSDO>  (8) 
F 4

>  <grid_id>  (8) 
syk-prepared

>  <grid_path>  (8) 
syk_vina.pdbqt

>  <grid_filename>  (8) 
syk_vina.pdbqt

>  <docking_score>  (8) 
-10.124

>  <compound_name>  (8) 
CHEMBL3265031

>  <index_string>  (8) 
7:0:0

>  <s_m_Source_Path>  (8) 
/projects/mai/users/kmzp800_harry/pmx_colab/docking_jobs/syk/vina_prep/output

>  <s_m_Source_File>  (8) 
ptp1b_docked_conformers.sdf

>  <i_m_Source_File_Index>  (8) 
201

$$$$
CHEMBL3265005
     RDKit          3D

 48 51  0  0  1  0  0  0  0  0999 V2000
    5.7250   -0.5470   16.4740 C   0  0  0  0  0  0  0  0  0  0  0  0
    4.4420   -0.9580   16.3090 N   0  0  0  0  0  0  0  0  0  0  0  0
    4.0180   -0.2540   15.2460 C   0  0  0  0  0  0  0  0  0  0  0  0
    2.7560   -0.3060   14.6600 C   0  0  0  0  0  0  0  0  0  0  0  0
    1.7440   -1.1760   15.1860 N   0  0  0  0  0  0  0  0  0  0  0  0
    2.5270    0.4970   13.5790 N   0  0  0  0  0  0  0  0  0  0  0  0
    3.4870    1.3320   13.0700 C   0  0  0  0  0  0  0  0  0  0  0  0
    4.7560    1.3640   13.6820 C   0  0  0  0  0  0  0  0  0  0  0  0
    4.9560    0.5580   14.7530 N   0  0  0  0  0  0  0  0  0  0  0  0
    6.0520    0.4000   15.5060 C   0  0  0  0  0  0  0  0  0  0  0  0
    0.4060   -1.3420   14.6970 C   0  0  0  0  0  0  0  0  0  0  0  0
   -0.3180   -2.5250   14.8940 C   0  0  0  0  0  0  0  0  0  0  0  0
   -1.6190   -2.6480   14.4010 C   0  0  0  0  0  0  0  0  0  0  0  0
   -2.2180   -1.5870   13.7040 C   0  0  0  0  0  0  0  0  0  0  0  0
   -1.4990   -0.3980   13.5030 C   0  0  0  0  0  0  0  0  0  0  0  0
   -0.1910   -0.2860   14.0020 C   0  0  0  0  0  0  0  0  0  0  0  0
   -3.5200   -1.6920   13.2030 O   0  0  0  0  0  0  0  0  0  0  0  0
   -4.1220   -2.9380   12.8790 C   0  0  0  0  0  0  0  0  0  0  0  0
   -2.1020    0.6550   12.8050 O   0  0  0  0  0  0  0  0  0  0  0  0
   -1.5750    1.1740   11.5920 C   0  0  0  0  0  0  0  0  0  0  0  0
    3.1860    2.1790   11.8980 C   0  0  0  0  0  0  0  0  0  0  0  0
    4.1830    2.4470   10.9480 C   0  0  0  0  0  0  0  0  0  0  0  0
    3.9060    3.2460    9.8360 C   0  0  0  0  0  0  0  0  0  0  0  0
    2.6300    3.7860    9.6650 C   0  0  0  0  0  0  0  0  0  0  0  0
    1.6200    3.5310   10.6030 C   0  0  0  0  0  0  0  0  0  0  0  0
    1.9050    2.7280   11.7150 C   0  0  0  0  0  0  0  0  0  0  0  0
    0.2730    4.0990   10.4220 C   0  0  0  0  0  0  0  0  0  0  0  0
   -0.3230    4.6450   11.3880 O   0  0  0  0  0  0  0  0  0  0  0  0
   -0.3710    4.0380    9.1520 N   0  0  0  0  0  0  0  0  0  0  0  0
    6.4070   -0.9088   17.2576 H   0  0  0  0  0  0  0  0  0  0  0  0
    2.0070   -1.7435   16.0043 H   0  0  0  0  0  0  0  0  0  0  0  0
    5.5549    2.0191   13.3043 H   0  0  0  0  0  0  0  0  0  0  0  0
    7.0166    0.9145   15.3846 H   0  0  0  0  0  0  0  0  0  0  0  0
    0.1410   -3.3622   15.4403 H   0  0  0  0  0  0  0  0  0  0  0  0
   -2.1777   -3.5821   14.5599 H   0  0  0  0  0  0  0  0  0  0  0  0
    0.3717    0.6458   13.8438 H   0  0  0  0  0  0  0  0  0  0  0  0
   -4.3802   -3.4723   13.8052 H   0  0  0  0  0  0  0  0  0  0  0  0
   -5.0346   -2.7623   12.2905 H   0  0  0  0  0  0  0  0  0  0  0  0
   -3.4172   -3.5437   12.2905 H   0  0  0  0  0  0  0  0  0  0  0  0
   -0.8081    1.9293   11.8189 H   0  0  0  0  0  0  0  0  0  0  0  0
   -1.1242    0.3574   11.0090 H   0  0  0  0  0  0  0  0  0  0  0  0
   -2.3846    1.6372   11.0090 H   0  0  0  0  0  0  0  0  0  0  0  0
    5.1902    2.0249   11.0797 H   0  0  0  0  0  0  0  0  0  0  0  0
    4.6932    3.4496    9.0952 H   0  0  0  0  0  0  0  0  0  0  0  0
    2.4158    4.4155    8.7887 H   0  0  0  0  0  0  0  0  0  0  0  0
    1.1163    2.5245   12.4543 H   0  0  0  0  0  0  0  0  0  0  0  0
   -1.3130    4.4372    9.0325 H   0  0  0  0  0  0  0  0  0  0  0  0
    0.1055    3.5947    8.3537 H   0  0  0  0  0  0  0  0  0  0  0  0
  1  2  1  0
  1 10  2  0
  2  3  2  0
  3  4  1  0
  3  9  1  0
  4  5  1  0
  4  6  2  0
  5 11  1  0
  6  7  1  0
  7  8  2  0
  7 21  1  0
  8  9  1  0
  9 10  1  0
 11 12  2  0
 11 16  1  0
 12 13  1  0
 13 14  2  0
 14 15  1  0
 14 17  1  0
 15 16  2  0
 15 19  1  0
 17 18  1  0
 19 20  1  0
 21 22  2  0
 21 26  1  0
 22 23  1  0
 23 24  2  0
 24 25  1  0
 25 26  2  0
 25 27  1  0
 27 28  2  0
 27 29  1  0
  1 30  1  0
  5 31  1  0
  8 32  1  0
 10 33  1  0
 12 34  1  0
 13 35  1  0
 16 36  1  0
 18 37  1  0
 18 38  1  0
 18 39  1  0
 20 40  1  0
 20 41  1  0
 20 42  1  0
 22 43  1  0
 23 44  1  0
 24 45  1  0
 26 46  1  0
 29 47  1  0
 29 48  1  0
M  END
>  <s_m_entry_id>  (9) 
397

>  <MODEL>  (9) 
1

>  <REMARK>  (9) 
 VINA RESULT:    -9.644      0.000      0.000
 INTER + INTRA:         -12.949
 INTER:                 -12.429
 INTRA:                  -0.519
 UNBOUND:                -0.485
  Name = /scratch/kmzp800/tmpsjqvihye/tmp_0a4ufgv.pdb
  7 active torsions:
  status: ('A' for Active; 'I' for Inactive)
    1  A    between atoms: N2_5  and  C4_6
    2  A    between atoms: C7_9  and  O1_10
    3  A    between atoms: O1_10  and  C8_11
    4  A    between atoms: C9_12  and  O2_13
    5  A    between atoms: O2_13  and  C10_14
    6  A    between atoms: C12_17  and  C13_18
    7  A    between atoms: C17_22  and  C18_23
                            x       y       z     vdW  Elec       q    Type
                         _______ _______ _______ _____ _____    ______ ____

>  <TORSDO>  (9) 
F 5

>  <grid_id>  (9) 
syk-prepared

>  <grid_path>  (9) 
syk_vina.pdbqt

>  <grid_filename>  (9) 
syk_vina.pdbqt

>  <docking_score>  (9) 
-9.644

>  <compound_name>  (9) 
CHEMBL3265005

>  <index_string>  (9) 
8:0:0

>  <s_m_Source_Path>  (9) 
/projects/mai/users/kmzp800_harry/pmx_colab/docking_jobs/syk/vina_prep/output

>  <s_m_Source_File>  (9) 
ptp1b_docked_conformers.sdf

>  <i_m_Source_File_Index>  (9) 
221

$$$$
CHEMBL3265024
     RDKit          3D

 50 54  0  0  1  0  0  0  0  0999 V2000
    5.5350   -0.6610   16.2660 C   0  0  0  0  0  0  0  0  0  0  0  0
    4.2330   -1.0350   16.1910 N   0  0  0  0  0  0  0  0  0  0  0  0
    3.7420   -0.2750   15.1990 C   0  0  0  0  0  0  0  0  0  0  0  0
    2.4350   -0.2750   14.7160 C   0  0  0  0  0  0  0  0  0  0  0  0
    1.4430   -1.1320   15.2970 N   0  0  0  0  0  0  0  0  0  0  0  0
    2.1360    0.5880   13.6990 N   0  0  0  0  0  0  0  0  0  0  0  0
    3.0730    1.4240   13.1490 C   0  0  0  0  0  0  0  0  0  0  0  0
    4.3890    1.3970   13.6530 C   0  0  0  0  0  0  0  0  0  0  0  0
    4.6560    0.5370   14.6630 N   0  0  0  0  0  0  0  0  0  0  0  0
    5.8060    0.3210   15.3160 C   0  0  0  0  0  0  0  0  0  0  0  0
    2.6960    2.3410   12.0540 C   0  0  0  0  0  0  0  0  0  0  0  0
    3.6070    2.6530   11.0300 C   0  0  0  0  0  0  0  0  0  0  0  0
    3.2440    3.5240    9.9970 C   0  0  0  0  0  0  0  0  0  0  0  0
    1.9660    4.0860    9.9750 C   0  0  0  0  0  0  0  0  0  0  0  0
    1.0550    3.7880   10.9990 C   0  0  0  0  0  0  0  0  0  0  0  0
    1.4200    2.9220   12.0320 C   0  0  0  0  0  0  0  0  0  0  0  0
   -0.2260    4.4170   11.0000 N   0  0  0  0  0  0  0  0  0  0  0  0
   -0.6090    5.2580    9.9110 C   0  0  0  0  0  0  0  0  0  0  0  0
   -1.6950    5.8920    9.9600 O   0  0  0  0  0  0  0  0  0  0  0  0
    0.2440    5.3240    8.6780 C   0  0  0  0  0  0  0  0  0  0  0  0
    1.6030    4.9660    8.9490 O   0  0  0  0  0  0  0  0  0  0  0  0
    0.1080   -1.3470   14.8260 C   0  0  0  0  0  0  0  0  0  0  0  0
   -0.5120   -2.5700   15.0950 C   0  0  0  0  0  0  0  0  0  0  0  0
   -1.8060   -2.8220   14.6370 C   0  0  0  0  0  0  0  0  0  0  0  0
   -2.5010   -1.8530   13.8950 C   0  0  0  0  0  0  0  0  0  0  0  0
   -1.8830   -0.6250   13.6120 C   0  0  0  0  0  0  0  0  0  0  0  0
   -0.5820   -0.3800   14.0800 C   0  0  0  0  0  0  0  0  0  0  0  0
   -3.7980   -2.0890   13.4290 O   0  0  0  0  0  0  0  0  0  0  0  0
   -4.1880   -3.3140   12.8250 C   0  0  0  0  0  0  0  0  0  0  0  0
   -2.5780    0.3320   12.8630 O   0  0  0  0  0  0  0  0  0  0  0  0
   -1.9220    1.3140   12.0740 C   0  0  0  0  0  0  0  0  0  0  0  0
    6.2694   -1.0731   16.9737 H   0  0  0  0  0  0  0  0  0  0  0  0
    1.7205   -1.6483   16.1440 H   0  0  0  0  0  0  0  0  0  0  0  0
    5.1708    2.0515   13.2402 H   0  0  0  0  0  0  0  0  0  0  0  0
    6.7704    0.8191   15.1376 H   0  0  0  0  0  0  0  0  0  0  0  0
    4.6133    2.2088   11.0409 H   0  0  0  0  0  0  0  0  0  0  0  0
    3.9652    3.7660    9.2024 H   0  0  0  0  0  0  0  0  0  0  0  0
    0.7019    2.6942   12.8335 H   0  0  0  0  0  0  0  0  0  0  0  0
   -0.8742    4.2645   11.7858 H   0  0  0  0  0  0  0  0  0  0  0  0
   -0.1631    4.6314    7.9266 H   0  0  0  0  0  0  0  0  0  0  0  0
    0.2316    6.3606    8.3101 H   0  0  0  0  0  0  0  0  0  0  0  0
    0.0232   -3.3390   15.6714 H   0  0  0  0  0  0  0  0  0  0  0  0
   -2.2853   -3.7869   14.8588 H   0  0  0  0  0  0  0  0  0  0  0  0
   -0.0977    0.5826   13.8588 H   0  0  0  0  0  0  0  0  0  0  0  0
   -4.4225   -4.0504   13.6077 H   0  0  0  0  0  0  0  0  0  0  0  0
   -5.0776   -3.1477   12.1998 H   0  0  0  0  0  0  0  0  0  0  0  0
   -3.3660   -3.6926   12.1998 H   0  0  0  0  0  0  0  0  0  0  0  0
   -1.4326    2.0466   12.7326 H   0  0  0  0  0  0  0  0  0  0  0  0
   -1.1658    0.8291   11.4391 H   0  0  0  0  0  0  0  0  0  0  0  0
   -2.6595    1.8269   11.4391 H   0  0  0  0  0  0  0  0  0  0  0  0
  1  2  1  0
  1 10  2  0
  2  3  2  0
  3  4  1  0
  3  9  1  0
  4  5  1  0
  4  6  2  0
  5 22  1  0
  6  7  1  0
  7  8  2  0
  7 11  1  0
  8  9  1  0
  9 10  1  0
 11 12  2  0
 11 16  1  0
 12 13  1  0
 13 14  2  0
 14 15  1  0
 14 21  1  0
 15 17  1  0
 15 16  2  0
 17 18  1  0
 18 19  2  0
 18 20  1  0
 20 21  1  0
 22 23  2  0
 22 27  1  0
 23 24  1  0
 24 25  2  0
 25 26  1  0
 25 28  1  0
 26 27  2  0
 26 30  1  0
 28 29  1  0
 30 31  1  0
  1 32  1  0
  5 33  1  0
  8 34  1  0
 10 35  1  0
 12 36  1  0
 13 37  1  0
 16 38  1  0
 17 39  1  0
 20 40  1  0
 20 41  1  0
 23 42  1  0
 24 43  1  0
 27 44  1  0
 29 45  1  0
 29 46  1  0
 29 47  1  0
 31 48  1  0
 31 49  1  0
 31 50  1  0
M  END
>  <s_m_entry_id>  (10) 
439

>  <MODEL>  (10) 
1

>  <REMARK>  (10) 
 VINA RESULT:   -10.167      0.000      0.000
 INTER + INTRA:         -12.347
 INTER:                 -11.858
 INTRA:                  -0.490
 UNBOUND:                 0.197
  Name = /scratch/kmzp800/tmpov4q96ul/tmpgq0jnlt_.pdb
  6 active torsions:
  status: ('A' for Active; 'I' for Inactive)
    1  A    between atoms: N2_5  and  C4_6
    2  A    between atoms: C7_9  and  O1_10
    3  A    between atoms: O1_10  and  C8_11
    4  A    between atoms: C9_12  and  O2_13
    5  A    between atoms: O2_13  and  C10_14
    6  A    between atoms: C12_17  and  C13_18
                            x       y       z     vdW  Elec       q    Type
                         _______ _______ _______ _____ _____    ______ ____

>  <TORSDO>  (10) 
F 4

>  <grid_id>  (10) 
syk-prepared

>  <grid_path>  (10) 
syk_vina.pdbqt

>  <grid_filename>  (10) 
syk_vina.pdbqt

>  <docking_score>  (10) 
-10.167

>  <compound_name>  (10) 
CHEMBL3265024

>  <index_string>  (10) 
9:0:0

>  <s_m_Source_Path>  (10) 
/projects/mai/users/kmzp800_harry/pmx_colab/docking_jobs/syk/vina_prep/output

>  <s_m_Source_File>  (10) 
ptp1b_docked_conformers.sdf

>  <i_m_Source_File_Index>  (10) 
263

$$$$
CHEMBL3265010
     RDKit          3D

 52 55  0  0  1  0  0  0  0  0999 V2000
    5.5460   -0.6340   16.3080 C   0  0  0  0  0  0  0  0  0  0  0  0
    4.2620   -1.0540   16.1720 N   0  0  0  0  0  0  0  0  0  0  0  0
    3.7860   -0.2950   15.1700 C   0  0  0  0  0  0  0  0  0  0  0  0
    2.5010   -0.3320   14.6340 C   0  0  0  0  0  0  0  0  0  0  0  0
    1.5260   -1.2480   15.1530 N   0  0  0  0  0  0  0  0  0  0  0  0
    2.2150    0.5270   13.6110 N   0  0  0  0  0  0  0  0  0  0  0  0
    3.1460    1.4050   13.1140 C   0  0  0  0  0  0  0  0  0  0  0  0
    4.4380    1.4200   13.6750 C   0  0  0  0  0  0  0  0  0  0  0  0
    4.6930    0.5570   14.6860 N   0  0  0  0  0  0  0  0  0  0  0  0
    5.8210    0.3710   15.3840 C   0  0  0  0  0  0  0  0  0  0  0  0
    0.1690   -1.4160   14.7220 C   0  0  0  0  0  0  0  0  0  0  0  0
   -0.4650   -2.6350   14.9770 C   0  0  0  0  0  0  0  0  0  0  0  0
   -1.7860   -2.8420   14.5750 C   0  0  0  0  0  0  0  0  0  0  0  0
   -2.4940   -1.8290   13.9090 C   0  0  0  0  0  0  0  0  0  0  0  0
   -1.8660   -0.6030   13.6480 C   0  0  0  0  0  0  0  0  0  0  0  0
   -0.5360   -0.4040   14.0570 C   0  0  0  0  0  0  0  0  0  0  0  0
   -3.8190   -2.0210   13.4990 O   0  0  0  0  0  0  0  0  0  0  0  0
   -4.2580   -3.2010   12.8420 C   0  0  0  0  0  0  0  0  0  0  0  0
   -2.5810    0.4000   12.9830 O   0  0  0  0  0  0  0  0  0  0  0  0
   -1.9870    1.2620   12.0220 C   0  0  0  0  0  0  0  0  0  0  0  0
    2.7910    2.3150   12.0060 C   0  0  0  0  0  0  0  0  0  0  0  0
    3.7640    2.7160   11.0850 C   0  0  0  0  0  0  0  0  0  0  0  0
    3.4360    3.5730   10.0360 C   0  0  0  0  0  0  0  0  0  0  0  0
    2.1240    4.0520    9.8830 C   0  0  0  0  0  0  0  0  0  0  0  0
    1.1300    3.6540   10.8070 C   0  0  0  0  0  0  0  0  0  0  0  0
    1.4810    2.7910   11.8560 C   0  0  0  0  0  0  0  0  0  0  0  0
   -0.2760    4.1160   10.7130 C   0  0  0  0  0  0  0  0  0  0  0  0
   -0.8410    4.6790   11.6880 O   0  0  0  0  0  0  0  0  0  0  0  0
   -1.0120    3.9290    9.5080 N   0  0  0  0  0  0  0  0  0  0  0  0
    1.8050    4.9140    8.8270 O   0  0  0  0  0  0  0  0  0  0  0  0
    2.0090    6.3190    8.8870 C   0  0  0  0  0  0  0  0  0  0  0  0
    6.2643   -1.0298   17.0411 H   0  0  0  0  0  0  0  0  0  0  0  0
    1.8371   -1.8552   15.9246 H   0  0  0  0  0  0  0  0  0  0  0  0
    5.2119    2.1084   13.3047 H   0  0  0  0  0  0  0  0  0  0  0  0
    6.7737    0.9051   15.2535 H   0  0  0  0  0  0  0  0  0  0  0  0
    0.0800   -3.4363   15.4976 H   0  0  0  0  0  0  0  0  0  0  0  0
   -2.2753   -3.8053   14.7815 H   0  0  0  0  0  0  0  0  0  0  0  0
   -0.0427    0.5577   13.8526 H   0  0  0  0  0  0  0  0  0  0  0  0
   -4.5386   -3.9553   13.5918 H   0  0  0  0  0  0  0  0  0  0  0  0
   -5.1295   -2.9677   12.2127 H   0  0  0  0  0  0  0  0  0  0  0  0
   -3.4459   -3.5940   12.2127 H   0  0  0  0  0  0  0  0  0  0  0  0
   -1.4358    2.0619   12.5380 H   0  0  0  0  0  0  0  0  0  0  0  0
   -1.2932    0.6860   11.3920 H   0  0  0  0  0  0  0  0  0  0  0  0
   -2.7723    1.7053   11.3920 H   0  0  0  0  0  0  0  0  0  0  0  0
    4.7968    2.3520   11.1894 H   0  0  0  0  0  0  0  0  0  0  0  0
    4.2131    3.8779    9.3197 H   0  0  0  0  0  0  0  0  0  0  0  0
    0.7106    2.4808   12.5773 H   0  0  0  0  0  0  0  0  0  0  0  0
   -1.9884    4.2509    9.4457 H   0  0  0  0  0  0  0  0  0  0  0  0
   -0.5678    3.4718    8.6989 H   0  0  0  0  0  0  0  0  0  0  0  0
    2.0553    6.6382    9.9386 H   0  0  0  0  0  0  0  0  0  0  0  0
    2.9536    6.5742    8.3844 H   0  0  0  0  0  0  0  0  0  0  0  0
    1.1760    6.8323    8.3844 H   0  0  0  0  0  0  0  0  0  0  0  0
  1  2  1  0
  1 10  2  0
  2  3  2  0
  3  4  1  0
  3  9  1  0
  4  5  1  0
  4  6  2  0
  5 11  1  0
  6  7  1  0
  7  8  2  0
  7 21  1  0
  8  9  1  0
  9 10  1  0
 11 12  2  0
 11 16  1  0
 12 13  1  0
 13 14  2  0
 14 15  1  0
 14 17  1  0
 15 16  2  0
 15 19  1  0
 17 18  1  0
 19 20  1  0
 21 22  2  0
 21 26  1  0
 22 23  1  0
 23 24  2  0
 24 25  1  0
 24 30  1  0
 25 26  2  0
 25 27  1  0
 27 28  2  0
 27 29  1  0
 30 31  1  0
  1 32  1  0
  5 33  1  0
  8 34  1  0
 10 35  1  0
 12 36  1  0
 13 37  1  0
 16 38  1  0
 18 39  1  0
 18 40  1  0
 18 41  1  0
 20 42  1  0
 20 43  1  0
 20 44  1  0
 22 45  1  0
 23 46  1  0
 26 47  1  0
 29 48  1  0
 29 49  1  0
 31 50  1  0
 31 51  1  0
 31 52  1  0
M  END
>  <s_m_entry_id>  (11) 
468

>  <MODEL>  (11) 
1

>  <REMARK>  (11) 
 VINA RESULT:   -12.624      0.000      0.000
 INTER + INTRA:         -13.219
 INTER:                 -12.294
 INTRA:                  -0.924
 UNBOUND:                 3.833
  Name = /scratch/kmzp800/tmpf6tpps21/tmp_hi6f6rb.pdb
  9 active torsions:
  status: ('A' for Active; 'I' for Inactive)
    1  A    between atoms: N2_5  and  C4_6
    2  A    between atoms: C7_9  and  O1_10
    3  A    between atoms: O1_10  and  C8_11
    4  A    between atoms: C9_12  and  O2_13
    5  A    between atoms: O2_13  and  C10_14
    6  A    between atoms: C12_17  and  C13_18
    7  A    between atoms: C16_21  and  O3_22
    8  A    between atoms: O3_22  and  C17_23
    9  A    between atoms: C18_24  and  C19_25
                            x       y       z     vdW  Elec       q    Type
                         _______ _______ _______ _____ _____    ______ ____

>  <TORSDO>  (11) 
F 6

>  <grid_id>  (11) 
syk-prepared

>  <grid_path>  (11) 
syk_vina.pdbqt

>  <grid_filename>  (11) 
syk_vina.pdbqt

>  <docking_score>  (11) 
-12.624

>  <compound_name>  (11) 
CHEMBL3265010

>  <index_string>  (11) 
10:0:0

>  <s_m_Source_Path>  (11) 
/projects/mai/users/kmzp800_harry/pmx_colab/docking_jobs/syk/vina_prep/output

>  <s_m_Source_File>  (11) 
ptp1b_docked_conformers.sdf

>  <i_m_Source_File_Index>  (11) 
292

$$$$
CHEMBL3265014
     RDKit          3D

 52 55  0  0  1  0  0  0  0  0999 V2000
    5.5750   -0.5780   16.2460 C   0  0  0  0  0  0  0  0  0  0  0  0
    4.3220   -1.0990   16.2070 N   0  0  0  0  0  0  0  0  0  0  0  0
    3.7100   -0.3750   15.2530 C   0  0  0  0  0  0  0  0  0  0  0  0
    2.3930   -0.5120   14.8200 C   0  0  0  0  0  0  0  0  0  0  0  0
    1.5380   -1.5050   15.4020 N   0  0  0  0  0  0  0  0  0  0  0  0
    1.9610    0.3280   13.8330 N   0  0  0  0  0  0  0  0  0  0  0  0
    2.7760    1.2790   13.2740 C   0  0  0  0  0  0  0  0  0  0  0  0
    4.1030    1.3950   13.7320 C   0  0  0  0  0  0  0  0  0  0  0  0
    4.5050    0.5500   14.7110 N   0  0  0  0  0  0  0  0  0  0  0  0
    5.6950    0.4510   15.3150 C   0  0  0  0  0  0  0  0  0  0  0  0
    0.1690   -1.7790   15.0780 C   0  0  0  0  0  0  0  0  0  0  0  0
   -0.3640   -3.0220   15.4280 C   0  0  0  0  0  0  0  0  0  0  0  0
   -1.6920   -3.3310   15.1310 C   0  0  0  0  0  0  0  0  0  0  0  0
   -2.5100   -2.3980   14.4760 C   0  0  0  0  0  0  0  0  0  0  0  0
   -1.9850   -1.1470   14.1200 C   0  0  0  0  0  0  0  0  0  0  0  0
   -0.6460   -0.8440   14.4230 C   0  0  0  0  0  0  0  0  0  0  0  0
   -3.8450   -2.6910   14.1710 O   0  0  0  0  0  0  0  0  0  0  0  0
   -4.2360   -3.3210   12.9600 C   0  0  0  0  0  0  0  0  0  0  0  0
   -2.8090   -0.2230   13.4680 O   0  0  0  0  0  0  0  0  0  0  0  0
   -2.3110    0.7450   12.5560 C   0  0  0  0  0  0  0  0  0  0  0  0
    2.2630    2.1650   12.2080 C   0  0  0  0  0  0  0  0  0  0  0  0
    3.1500    2.7830   11.3220 C   0  0  0  0  0  0  0  0  0  0  0  0
    2.6740    3.6200   10.3140 C   0  0  0  0  0  0  0  0  0  0  0  0
    1.3000    3.8630   10.1630 C   0  0  0  0  0  0  0  0  0  0  0  0
    0.3940    3.2420   11.0550 C   0  0  0  0  0  0  0  0  0  0  0  0
    0.8900    2.4010   12.0660 C   0  0  0  0  0  0  0  0  0  0  0  0
    0.8630    4.7650    9.0690 C   0  0  0  0  0  0  0  0  0  0  0  0
    1.4850    5.8390    8.8540 O   0  0  0  0  0  0  0  0  0  0  0  0
   -0.2550    4.4470    8.2440 N   0  0  0  0  0  0  0  0  0  0  0  0
   -0.9840    3.4610   10.9360 O   0  0  0  0  0  0  0  0  0  0  0  0
   -1.7000    4.3640   11.7680 C   0  0  0  0  0  0  0  0  0  0  0  0
    6.3785   -0.9189   16.9154 H   0  0  0  0  0  0  0  0  0  0  0  0
    1.9566   -2.0899   16.1392 H   0  0  0  0  0  0  0  0  0  0  0  0
    4.7881    2.1449   13.3097 H   0  0  0  0  0  0  0  0  0  0  0  0
    6.5890    1.0603   15.1161 H   0  0  0  0  0  0  0  0  0  0  0  0
    0.2675   -3.7622   15.9412 H   0  0  0  0  0  0  0  0  0  0  0  0
   -2.1004   -4.3129   15.4124 H   0  0  0  0  0  0  0  0  0  0  0  0
   -0.2332    0.1365   14.1435 H   0  0  0  0  0  0  0  0  0  0  0  0
   -4.8034   -4.2352   13.1888 H   0  0  0  0  0  0  0  0  0  0  0  0
   -4.8669   -2.6343   12.3765 H   0  0  0  0  0  0  0  0  0  0  0  0
   -3.3406   -3.5815   12.3765 H   0  0  0  0  0  0  0  0  0  0  0  0
   -1.8777    1.5872   13.1155 H   0  0  0  0  0  0  0  0  0  0  0  0
   -1.5361    0.2879   11.9230 H   0  0  0  0  0  0  0  0  0  0  0  0
   -3.1334    1.1097   11.9230 H   0  0  0  0  0  0  0  0  0  0  0  0
    4.2314    2.6076   11.4209 H   0  0  0  0  0  0  0  0  0  0  0  0
    3.3868    4.0978    9.6258 H   0  0  0  0  0  0  0  0  0  0  0  0
    0.1856    1.9185   12.7596 H   0  0  0  0  0  0  0  0  0  0  0  0
   -0.5386    5.0898    7.4908 H   0  0  0  0  0  0  0  0  0  0  0  0
   -0.7793    3.5744    8.4010 H   0  0  0  0  0  0  0  0  0  0  0  0
   -1.5075    4.1213   12.8235 H   0  0  0  0  0  0  0  0  0  0  0  0
   -1.3695    5.3928   11.5622 H   0  0  0  0  0  0  0  0  0  0  0  0
   -2.7771    4.2768   11.5622 H   0  0  0  0  0  0  0  0  0  0  0  0
  1  2  1  0
  1 10  2  0
  2  3  2  0
  3  4  1  0
  3  9  1  0
  4  5  1  0
  4  6  2  0
  5 11  1  0
  6  7  1  0
  7  8  2  0
  7 21  1  0
  8  9  1  0
  9 10  1  0
 11 12  2  0
 11 16  1  0
 12 13  1  0
 13 14  2  0
 14 15  1  0
 14 17  1  0
 15 16  2  0
 15 19  1  0
 17 18  1  0
 19 20  1  0
 21 22  2  0
 21 26  1  0
 22 23  1  0
 23 24  2  0
 24 25  1  0
 24 27  1  0
 25 26  2  0
 25 30  1  0
 27 28  2  0
 27 29  1  0
 30 31  1  0
  1 32  1  0
  5 33  1  0
  8 34  1  0
 10 35  1  0
 12 36  1  0
 13 37  1  0
 16 38  1  0
 18 39  1  0
 18 40  1  0
 18 41  1  0
 20 42  1  0
 20 43  1  0
 20 44  1  0
 22 45  1  0
 23 46  1  0
 26 47  1  0
 29 48  1  0
 29 49  1  0
 31 50  1  0
 31 51  1  0
 31 52  1  0
M  END
>  <s_m_entry_id>  (12) 
503

>  <MODEL>  (12) 
1

>  <REMARK>  (12) 
 VINA RESULT:    -9.529      0.000      0.000
 INTER + INTRA:         -12.654
 INTER:                 -11.796
 INTRA:                  -0.858
 UNBOUND:                 0.218
  Name = /scratch/kmzp800/tmpcivzm3ic/tmp8w5bqqjr.pdb
  9 active torsions:
  status: ('A' for Active; 'I' for Inactive)
    1  A    between atoms: N2_5  and  C4_6
    2  A    between atoms: C7_9  and  O1_10
    3  A    between atoms: O1_10  and  C8_11
    4  A    between atoms: C9_12  and  O2_13
    5  A    between atoms: O2_13  and  C10_14
    6  A    between atoms: C12_17  and  C13_18
    7  A    between atoms: C16_21  and  C17_22
    8  A    between atoms: C18_25  and  O4_26
    9  A    between atoms: O4_26  and  C19_27
                            x       y       z     vdW  Elec       q    Type
                         _______ _______ _______ _____ _____    ______ ____

>  <TORSDO>  (12) 
F 6

>  <grid_id>  (12) 
syk-prepared

>  <grid_path>  (12) 
syk_vina.pdbqt

>  <grid_filename>  (12) 
syk_vina.pdbqt

>  <docking_score>  (12) 
-9.529

>  <compound_name>  (12) 
CHEMBL3265014

>  <index_string>  (12) 
11:0:0

>  <s_m_Source_Path>  (12) 
/projects/mai/users/kmzp800_harry/pmx_colab/docking_jobs/syk/vina_prep/output

>  <s_m_Source_File>  (12) 
ptp1b_docked_conformers.sdf

>  <i_m_Source_File_Index>  (12) 
327

$$$$
CHEMBL3265023
     RDKit          3D

 50 54  0  0  1  0  0  0  0  0999 V2000
    5.5170   -0.7830   16.3260 C   0  0  0  0  0  0  0  0  0  0  0  0
    4.2440   -1.2450   16.2540 N   0  0  0  0  0  0  0  0  0  0  0  0
    3.6820   -0.4830   15.3010 C   0  0  0  0  0  0  0  0  0  0  0  0
    2.3710   -0.5540   14.8420 C   0  0  0  0  0  0  0  0  0  0  0  0
    1.4630   -1.5160   15.3940 N   0  0  0  0  0  0  0  0  0  0  0  0
    1.9940    0.3180   13.8580 N   0  0  0  0  0  0  0  0  0  0  0  0
    2.8630    1.2390   13.3280 C   0  0  0  0  0  0  0  0  0  0  0  0
    4.1850    1.2870   13.8130 C   0  0  0  0  0  0  0  0  0  0  0  0
    4.5290    0.4120   14.7870 N   0  0  0  0  0  0  0  0  0  0  0  0
    5.7020    0.2520   15.4120 C   0  0  0  0  0  0  0  0  0  0  0  0
    2.4140    2.1620   12.2660 C   0  0  0  0  0  0  0  0  0  0  0  0
    1.0300    2.4330   12.0830 C   0  0  0  0  0  0  0  0  0  0  0  0
    0.5870    3.3090   11.0760 C   0  0  0  0  0  0  0  0  0  0  0  0
    1.5610    3.8960   10.2720 C   0  0  0  0  0  0  0  0  0  0  0  0
    2.8900    3.6450   10.4380 C   0  0  0  0  0  0  0  0  0  0  0  0
    3.5540    4.3870    9.4800 C   0  0  0  0  0  0  0  0  0  0  0  0
    2.6090    5.0580    8.7710 N   0  0  0  0  0  0  0  0  0  0  0  0
    1.4100    4.7560    9.2560 N   0  0  0  0  0  0  0  0  0  0  0  0
    0.1630    5.2910    8.7410 C   0  0  0  0  0  0  0  0  0  0  0  0
    3.3620    2.7840   11.4240 C   0  0  0  0  0  0  0  0  0  0  0  0
    0.0880   -1.7280   15.0440 C   0  0  0  0  0  0  0  0  0  0  0  0
   -0.5230   -2.9200   15.4380 C   0  0  0  0  0  0  0  0  0  0  0  0
   -1.8590   -3.1700   15.1190 C   0  0  0  0  0  0  0  0  0  0  0  0
   -2.6060   -2.2250   14.3980 C   0  0  0  0  0  0  0  0  0  0  0  0
   -2.0010   -1.0240   13.9980 C   0  0  0  0  0  0  0  0  0  0  0  0
   -0.6550   -0.7820   14.3240 C   0  0  0  0  0  0  0  0  0  0  0  0
   -3.9460   -2.4590   14.0690 O   0  0  0  0  0  0  0  0  0  0  0  0
   -4.3390   -3.1920   12.9170 C   0  0  0  0  0  0  0  0  0  0  0  0
   -2.7550   -0.0900   13.2800 O   0  0  0  0  0  0  0  0  0  0  0  0
   -2.1650    0.9610   12.5290 C   0  0  0  0  0  0  0  0  0  0  0  0
    6.2903   -1.1690   17.0065 H   0  0  0  0  0  0  0  0  0  0  0  0
    1.8432   -2.1282   16.1299 H   0  0  0  0  0  0  0  0  0  0  0  0
    4.9119    2.0099   13.4143 H   0  0  0  0  0  0  0  0  0  0  0  0
    6.6261    0.8230   15.2387 H   0  0  0  0  0  0  0  0  0  0  0  0
    0.2930    1.9489   12.7407 H   0  0  0  0  0  0  0  0  0  0  0  0
   -0.4823    3.5214   10.9297 H   0  0  0  0  0  0  0  0  0  0  0  0
    4.6418    4.4269    9.3214 H   0  0  0  0  0  0  0  0  0  0  0  0
   -0.4902    5.5713    9.5805 H   0  0  0  0  0  0  0  0  0  0  0  0
    0.3712    6.1790    8.1261 H   0  0  0  0  0  0  0  0  0  0  0  0
   -0.3371    4.5282    8.1261 H   0  0  0  0  0  0  0  0  0  0  0  0
    4.4388    2.5940   11.5438 H   0  0  0  0  0  0  0  0  0  0  0  0
    0.0524   -3.6675   16.0038 H   0  0  0  0  0  0  0  0  0  0  0  0
   -2.3291   -4.1131   15.4345 H   0  0  0  0  0  0  0  0  0  0  0  0
   -0.1799    0.1594   14.0109 H   0  0  0  0  0  0  0  0  0  0  0  0
   -4.8377   -4.1222   13.2268 H   0  0  0  0  0  0  0  0  0  0  0  0
   -5.0333   -2.5862   12.3162 H   0  0  0  0  0  0  0  0  0  0  0  0
   -3.4502   -3.4350   12.3162 H   0  0  0  0  0  0  0  0  0  0  0  0
   -1.7442    1.7106   13.2153 H   0  0  0  0  0  0  0  0  0  0  0  0
   -1.3637    0.5536   11.8950 H   0  0  0  0  0  0  0  0  0  0  0  0
   -2.9301    1.4329   11.8950 H   0  0  0  0  0  0  0  0  0  0  0  0
  1  2  1  0
  1 10  2  0
  2  3  2  0
  3  4  1  0
  3  9  1  0
  4  5  1  0
  4  6  2  0
  5 21  1  0
  6  7  1  0
  7  8  2  0
  7 11  1  0
  8  9  1  0
  9 10  1  0
 11 12  2  0
 11 20  1  0
 12 13  1  0
 13 14  2  0
 14 15  1  0
 14 18  1  0
 15 20  2  0
 15 16  1  0
 16 17  2  0
 17 18  1  0
 18 19  1  0
 21 22  2  0
 21 26  1  0
 22 23  1  0
 23 24  2  0
 24 25  1  0
 24 27  1  0
 25 26  2  0
 25 29  1  0
 27 28  1  0
 29 30  1  0
  1 31  1  0
  5 32  1  0
  8 33  1  0
 10 34  1  0
 12 35  1  0
 13 36  1  0
 16 37  1  0
 19 38  1  0
 19 39  1  0
 19 40  1  0
 20 41  1  0
 22 42  1  0
 23 43  1  0
 26 44  1  0
 28 45  1  0
 28 46  1  0
 28 47  1  0
 30 48  1  0
 30 49  1  0
 30 50  1  0
M  END
>  <s_m_entry_id>  (13) 
539

>  <MODEL>  (13) 
3

>  <REMARK>  (13) 
 VINA RESULT:    -9.506      2.308      6.723
 INTER + INTRA:         -11.145
 INTER:                 -10.784
 INTRA:                  -0.361
 UNBOUND:                 0.584
  Name = /scratch/kmzp800/tmph8ya4jgu/tmpfdcp0i3m.pdb
  7 active torsions:
  status: ('A' for Active; 'I' for Inactive)
    1  A    between atoms: N2_5  and  C4_6
    2  A    between atoms: C7_9  and  O1_10
    3  A    between atoms: O1_10  and  C8_11
    4  A    between atoms: C9_12  and  O2_13
    5  A    between atoms: O2_13  and  C10_14
    6  A    between atoms: C12_17  and  C13_18
    7  A    between atoms: N5_25  and  C19_26
                            x       y       z     vdW  Elec       q    Type
                         _______ _______ _______ _____ _____    ______ ____

>  <TORSDO>  (13) 
F 4

>  <grid_id>  (13) 
syk-prepared

>  <grid_path>  (13) 
syk_vina.pdbqt

>  <grid_filename>  (13) 
syk_vina.pdbqt

>  <docking_score>  (13) 
-9.506

>  <compound_name>  (13) 
CHEMBL3265023

>  <index_string>  (13) 
12:0:2

>  <s_m_Source_Path>  (13) 
/projects/mai/users/kmzp800_harry/pmx_colab/docking_jobs/syk/vina_prep/output

>  <s_m_Source_File>  (13) 
ptp1b_docked_conformers.sdf

>  <i_m_Source_File_Index>  (13) 
363

$$$$
CHEMBL3264997
     RDKit          3D

 61 65  0  0  1  0  0  0  0  0999 V2000
    5.8240   -0.5410   16.4670 C   0  0  0  0  0  0  0  0  0  0  0  0
    4.5380   -0.9530   16.3300 N   0  0  0  0  0  0  0  0  0  0  0  0
    4.0910   -0.2510   15.2750 C   0  0  0  0  0  0  0  0  0  0  0  0
    2.8160   -0.3060   14.7170 C   0  0  0  0  0  0  0  0  0  0  0  0
    1.8240   -1.1800   15.2720 N   0  0  0  0  0  0  0  0  0  0  0  0
    2.5590    0.4950   13.6400 N   0  0  0  0  0  0  0  0  0  0  0  0
    3.5100    1.3300   13.1100 C   0  0  0  0  0  0  0  0  0  0  0  0
    4.7910    1.3640   13.6960 C   0  0  0  0  0  0  0  0  0  0  0  0
    5.0160    0.5610   14.7610 N   0  0  0  0  0  0  0  0  0  0  0  0
    6.1280    0.4060   15.4910 C   0  0  0  0  0  0  0  0  0  0  0  0
    0.4720   -1.3660   14.8320 C   0  0  0  0  0  0  0  0  0  0  0  0
   -0.2840   -2.4890   15.1910 C   0  0  0  0  0  0  0  0  0  0  0  0
   -1.5990   -2.6260   14.7370 C   0  0  0  0  0  0  0  0  0  0  0  0
   -2.1740   -1.6400   13.9190 C   0  0  0  0  0  0  0  0  0  0  0  0
   -1.4220   -0.5140   13.5570 C   0  0  0  0  0  0  0  0  0  0  0  0
   -0.1020   -0.3860   14.0190 C   0  0  0  0  0  0  0  0  0  0  0  0
   -3.4880   -1.7550   13.4520 O   0  0  0  0  0  0  0  0  0  0  0  0
   -4.0640   -2.9950   13.0630 C   0  0  0  0  0  0  0  0  0  0  0  0
   -2.0010    0.4640   12.7420 O   0  0  0  0  0  0  0  0  0  0  0  0
   -1.3650    0.9690   11.5750 C   0  0  0  0  0  0  0  0  0  0  0  0
    3.1940    2.1810   11.9430 C   0  0  0  0  0  0  0  0  0  0  0  0
    4.1600    2.4260   10.9550 C   0  0  0  0  0  0  0  0  0  0  0  0
    3.8620    3.2290    9.8530 C   0  0  0  0  0  0  0  0  0  0  0  0
    2.5930    3.7960    9.7290 C   0  0  0  0  0  0  0  0  0  0  0  0
    1.6120    3.5650   10.7030 C   0  0  0  0  0  0  0  0  0  0  0  0
    1.9200    2.7570   11.8080 C   0  0  0  0  0  0  0  0  0  0  0  0
    0.2750    4.1670   10.5640 C   0  0  0  0  0  0  0  0  0  0  0  0
   -0.1410    4.5030    9.4200 O   0  0  0  0  0  0  0  0  0  0  0  0
   -0.5440    4.3680   11.7260 N   0  0  0  0  0  0  0  0  0  0  0  0
   -1.8590    4.9370   11.7560 C   0  0  0  0  0  0  0  0  0  0  0  0
   -1.9960    6.3020   12.0260 C   0  0  0  0  0  0  0  0  0  0  0  0
   -3.2630    6.8930   12.0630 C   0  0  0  0  0  0  0  0  0  0  0  0
   -4.4020    6.1190   11.8310 C   0  0  0  0  0  0  0  0  0  0  0  0
   -4.2820    4.7500   11.5600 C   0  0  0  0  0  0  0  0  0  0  0  0
   -3.0090    4.1670   11.5240 C   0  0  0  0  0  0  0  0  0  0  0  0
   -5.4840    3.9370   11.3160 C   0  0  0  0  0  0  0  0  0  0  0  0
   -6.6070    4.4860   11.1610 O   0  0  0  0  0  0  0  0  0  0  0  0
   -5.3910    2.5500   11.2560 O   0  0  0  0  0  0  0  0  0  0  0  0
    6.5235   -0.9017   17.2356 H   0  0  0  0  0  0  0  0  0  0  0  0
    2.1178   -1.7415   16.0840 H   0  0  0  0  0  0  0  0  0  0  0  0
    5.5804    2.0205   13.3012 H   0  0  0  0  0  0  0  0  0  0  0  0
    7.0887    0.9226   15.3487 H   0  0  0  0  0  0  0  0  0  0  0  0
    0.1584   -3.2656   15.8322 H   0  0  0  0  0  0  0  0  0  0  0  0
   -2.1866   -3.5111   15.0221 H   0  0  0  0  0  0  0  0  0  0  0  0
    0.4881    0.4984   13.7367 H   0  0  0  0  0  0  0  0  0  0  0  0
   -4.3321   -3.5722   13.9602 H   0  0  0  0  0  0  0  0  0  0  0  0
   -4.9673   -2.8078   12.4639 H   0  0  0  0  0  0  0  0  0  0  0  0
   -3.3382   -3.5645   12.4639 H   0  0  0  0  0  0  0  0  0  0  0  0
   -0.5343    1.6286   11.8664 H   0  0  0  0  0  0  0  0  0  0  0  0
   -0.9758    0.1312   10.9778 H   0  0  0  0  0  0  0  0  0  0  0  0
   -2.0928    1.5379   10.9778 H   0  0  0  0  0  0  0  0  0  0  0  0
    5.1615    1.9810   11.0500 H   0  0  0  0  0  0  0  0  0  0  0  0
    4.6260    3.4146    9.0837 H   0  0  0  0  0  0  0  0  0  0  0  0
    2.3608    4.4292    8.8600 H   0  0  0  0  0  0  0  0  0  0  0  0
    1.1554    2.5726   12.5770 H   0  0  0  0  0  0  0  0  0  0  0  0
   -0.1463    4.0735   12.6293 H   0  0  0  0  0  0  0  0  0  0  0  0
   -1.1015    6.9150   12.2105 H   0  0  0  0  0  0  0  0  0  0  0  0
   -3.3624    7.9678   12.2749 H   0  0  0  0  0  0  0  0  0  0  0  0
   -5.3974    6.5863   11.8612 H   0  0  0  0  0  0  0  0  0  0  0  0
   -2.9095    3.0924   11.3113 H   0  0  0  0  0  0  0  0  0  0  0  0
   -6.2018    2.0062   11.0917 H   0  0  0  0  0  0  0  0  0  0  0  0
  1  2  1  0
  1 10  2  0
  2  3  2  0
  3  4  1  0
  3  9  1  0
  4  5  1  0
  4  6  2  0
  5 11  1  0
  6  7  1  0
  7  8  2  0
  7 21  1  0
  8  9  1  0
  9 10  1  0
 11 12  2  0
 11 16  1  0
 12 13  1  0
 13 14  2  0
 14 15  1  0
 14 17  1  0
 15 16  2  0
 15 19  1  0
 17 18  1  0
 19 20  1  0
 21 22  2  0
 21 26  1  0
 22 23  1  0
 23 24  2  0
 24 25  1  0
 25 26  2  0
 25 27  1  0
 27 29  1  0
 27 28  2  0
 29 30  1  0
 30 31  2  0
 30 35  1  0
 31 32  1  0
 32 33  2  0
 33 34  1  0
 34 35  2  0
 34 36  1  0
 36 37  2  0
 36 38  1  0
  1 39  1  0
  5 40  1  0
  8 41  1  0
 10 42  1  0
 12 43  1  0
 13 44  1  0
 16 45  1  0
 18 46  1  0
 18 47  1  0
 18 48  1  0
 20 49  1  0
 20 50  1  0
 20 51  1  0
 22 52  1  0
 23 53  1  0
 24 54  1  0
 26 55  1  0
 29 56  1  0
 31 57  1  0
 32 58  1  0
 33 59  1  0
 35 60  1  0
 38 61  1  0
M  END
>  <s_m_entry_id>  (14) 
562

>  <MODEL>  (14) 
1

>  <REMARK>  (14) 
 VINA RESULT:   -10.708      0.000      0.000
 INTER + INTRA:         -15.883
 INTER:                 -14.804
 INTRA:                  -1.079
 UNBOUND:                -0.793
  Name = /scratch/kmzp800/tmpmhmau333/tmp5ui7q53t.pdb
  9 active torsions:
  status: ('A' for Active; 'I' for Inactive)
    1  A    between atoms: N2_5  and  C4_6
    2  A    between atoms: C7_9  and  O1_10
    3  A    between atoms: O1_10  and  C8_11
    4  A    between atoms: C9_12  and  O2_13
    5  A    between atoms: O2_13  and  C10_14
    6  A    between atoms: C12_17  and  C13_18
    7  A    between atoms: C17_22  and  C18_23
    8  A    between atoms: N4_25  and  C19_26
    9  A    between atoms: C23_30  and  C24_31
                            x       y       z     vdW  Elec       q    Type
                         _______ _______ _______ _____ _____    ______ ____

>  <TORSDO>  (14) 
F 7

>  <grid_id>  (14) 
syk-prepared

>  <grid_path>  (14) 
syk_vina.pdbqt

>  <grid_filename>  (14) 
syk_vina.pdbqt

>  <docking_score>  (14) 
-10.708

>  <compound_name>  (14) 
CHEMBL3264997

>  <index_string>  (14) 
13:0:0

>  <s_m_Source_Path>  (14) 
/projects/mai/users/kmzp800_harry/pmx_colab/docking_jobs/syk/vina_prep/output

>  <s_m_Source_File>  (14) 
ptp1b_docked_conformers.sdf

>  <i_m_Source_File_Index>  (14) 
386

$$$$
CHEMBL3264998
     RDKit          3D

 64 68  0  0  1  0  0  0  0  0999 V2000
    5.8230   -0.6030   16.5440 C   0  0  0  0  0  0  0  0  0  0  0  0
    4.5020   -0.9050   16.4840 N   0  0  0  0  0  0  0  0  0  0  0  0
    4.0720   -0.2250   15.4070 C   0  0  0  0  0  0  0  0  0  0  0  0
    2.7760   -0.1980   14.8990 C   0  0  0  0  0  0  0  0  0  0  0  0
    1.7140   -0.9160   15.5410 N   0  0  0  0  0  0  0  0  0  0  0  0
    2.5470    0.5720   13.7960 N   0  0  0  0  0  0  0  0  0  0  0  0
    3.5390    1.2870   13.1800 C   0  0  0  0  0  0  0  0  0  0  0  0
    4.8440    1.2330   13.7050 C   0  0  0  0  0  0  0  0  0  0  0  0
    5.0440    0.4700   14.8060 N   0  0  0  0  0  0  0  0  0  0  0  0
    6.1690    0.2530   15.5010 C   0  0  0  0  0  0  0  0  0  0  0  0
    0.4150   -1.1530   14.9820 C   0  0  0  0  0  0  0  0  0  0  0  0
   -0.2440   -2.3490   15.2750 C   0  0  0  0  0  0  0  0  0  0  0  0
   -1.5060   -2.6090   14.7360 C   0  0  0  0  0  0  0  0  0  0  0  0
   -2.1220   -1.6790   13.8830 C   0  0  0  0  0  0  0  0  0  0  0  0
   -1.4560   -0.4860   13.5630 C   0  0  0  0  0  0  0  0  0  0  0  0
   -0.1920   -0.2320   14.1180 C   0  0  0  0  0  0  0  0  0  0  0  0
   -3.3880   -1.9200   13.3390 O   0  0  0  0  0  0  0  0  0  0  0  0
   -3.9500   -3.2210   13.2440 C   0  0  0  0  0  0  0  0  0  0  0  0
   -2.0620    0.4260   12.6920 O   0  0  0  0  0  0  0  0  0  0  0  0
   -1.4110    0.9320   11.5350 C   0  0  0  0  0  0  0  0  0  0  0  0
    3.2180    2.1050   11.9920 C   0  0  0  0  0  0  0  0  0  0  0  0
    4.2080    2.4710   11.0670 C   0  0  0  0  0  0  0  0  0  0  0  0
    3.8770    3.2440    9.9500 C   0  0  0  0  0  0  0  0  0  0  0  0
    2.5570    3.6590    9.7500 C   0  0  0  0  0  0  0  0  0  0  0  0
    1.5590    3.3050   10.6670 C   0  0  0  0  0  0  0  0  0  0  0  0
    1.8990    2.5290   11.7810 C   0  0  0  0  0  0  0  0  0  0  0  0
    0.1650    3.7370   10.4730 C   0  0  0  0  0  0  0  0  0  0  0  0
   -0.4200    3.5050    9.3800 O   0  0  0  0  0  0  0  0  0  0  0  0
   -0.5130    4.4300   11.5320 N   0  0  0  0  0  0  0  0  0  0  0  0
   -1.8870    4.8340   11.5630 C   0  0  0  0  0  0  0  0  0  0  0  0
   -2.3040    6.0900   11.1000 C   0  0  0  0  0  0  0  0  0  0  0  0
   -3.6570    6.4420   11.1310 C   0  0  0  0  0  0  0  0  0  0  0  0
   -4.6030    5.5380   11.6270 C   0  0  0  0  0  0  0  0  0  0  0  0
   -4.1930    4.2820   12.0840 C   0  0  0  0  0  0  0  0  0  0  0  0
   -2.8410    3.9330   12.0520 C   0  0  0  0  0  0  0  0  0  0  0  0
   -6.0470    5.9030   11.6410 C   0  0  0  0  0  0  0  0  0  0  0  0
   -6.4220    6.5080   12.9510 C   0  0  0  0  0  0  0  0  0  0  0  0
   -7.6140    6.8490   13.1680 O   0  0  0  0  0  0  0  0  0  0  0  0
   -5.4650    6.6600   13.9450 O   0  0  0  0  0  0  0  0  0  0  0  0
    6.5206   -0.9798   17.3065 H   0  0  0  0  0  0  0  0  0  0  0  0
    1.8995   -1.2927   16.4815 H   0  0  0  0  0  0  0  0  0  0  0  0
    5.6703    1.7896   13.2386 H   0  0  0  0  0  0  0  0  0  0  0  0
    7.1658    0.6677   15.2901 H   0  0  0  0  0  0  0  0  0  0  0  0
    0.2332   -3.0898   15.9334 H   0  0  0  0  0  0  0  0  0  0  0  0
   -2.0213   -3.5493   14.9815 H   0  0  0  0  0  0  0  0  0  0  0  0
    0.3299    0.7042   13.8709 H   0  0  0  0  0  0  0  0  0  0  0  0
   -4.1226   -3.6205   14.2542 H   0  0  0  0  0  0  0  0  0  0  0  0
   -4.9058   -3.1688   12.7021 H   0  0  0  0  0  0  0  0  0  0  0  0
   -3.2568   -3.8812   12.7021 H   0  0  0  0  0  0  0  0  0  0  0  0
   -0.5762    1.5809   11.8383 H   0  0  0  0  0  0  0  0  0  0  0  0
   -1.0252    0.0943   10.9355 H   0  0  0  0  0  0  0  0  0  0  0  0
   -2.1276    1.5126   10.9355 H   0  0  0  0  0  0  0  0  0  0  0  0
    5.2483    2.1485   11.2214 H   0  0  0  0  0  0  0  0  0  0  0  0
    4.6567    3.5262    9.2272 H   0  0  0  0  0  0  0  0  0  0  0  0
    2.3011    4.2659    8.8690 H   0  0  0  0  0  0  0  0  0  0  0  0
    1.1182    2.2473   12.5028 H   0  0  0  0  0  0  0  0  0  0  0  0
    0.0513    4.6625   12.3617 H   0  0  0  0  0  0  0  0  0  0  0  0
   -1.5624    6.8028   10.7100 H   0  0  0  0  0  0  0  0  0  0  0  0
   -3.9775    7.4289   10.7657 H   0  0  0  0  0  0  0  0  0  0  0  0
   -4.9359    3.5680   12.4691 H   0  0  0  0  0  0  0  0  0  0  0  0
   -2.5234    2.9438   12.4133 H   0  0  0  0  0  0  0  0  0  0  0  0
   -6.2445    6.6283   10.8379 H   0  0  0  0  0  0  0  0  0  0  0  0
   -6.6447    4.9926   11.4865 H   0  0  0  0  0  0  0  0  0  0  0  0
   -5.7142    7.0618   14.8148 H   0  0  0  0  0  0  0  0  0  0  0  0
  1  2  1  0
  1 10  2  0
  2  3  2  0
  3  4  1  0
  3  9  1  0
  4  5  1  0
  4  6  2  0
  5 11  1  0
  6  7  1  0
  7  8  2  0
  7 21  1  0
  8  9  1  0
  9 10  1  0
 11 12  2  0
 11 16  1  0
 12 13  1  0
 13 14  2  0
 14 15  1  0
 14 17  1  0
 15 16  2  0
 15 19  1  0
 17 18  1  0
 19 20  1  0
 21 22  2  0
 21 26  1  0
 22 23  1  0
 23 24  2  0
 24 25  1  0
 25 26  2  0
 25 27  1  0
 27 29  1  0
 27 28  2  0
 29 30  1  0
 30 35  1  0
 30 31  2  0
 31 32  1  0
 32 33  2  0
 33 36  1  0
 33 34  1  0
 34 35  2  0
 36 37  1  0
 37 38  2  0
 37 39  1  0
  1 40  1  0
  5 41  1  0
  8 42  1  0
 10 43  1  0
 12 44  1  0
 13 45  1  0
 16 46  1  0
 18 47  1  0
 18 48  1  0
 18 49  1  0
 20 50  1  0
 20 51  1  0
 20 52  1  0
 22 53  1  0
 23 54  1  0
 24 55  1  0
 26 56  1  0
 29 57  1  0
 31 58  1  0
 32 59  1  0
 34 60  1  0
 35 61  1  0
 36 62  1  0
 36 63  1  0
 39 64  1  0
M  END
>  <s_m_entry_id>  (15) 
570

>  <MODEL>  (15) 
1

>  <REMARK>  (15) 
 VINA RESULT:   -10.311      0.000      0.000
 INTER + INTRA:         -15.741
 INTER:                 -14.891
 INTRA:                  -0.850
 UNBOUND:                -0.608
  Name = /scratch/kmzp800/tmphzasx55n/tmp8wp48vvd.pdb
  10 active torsions:
  status: ('A' for Active; 'I' for Inactive)
    1  A    between atoms: N2_5  and  C4_6
    2  A    between atoms: C7_9  and  O1_10
    3  A    between atoms: O1_10  and  C8_11
    4  A    between atoms: C9_12  and  O2_13
    5  A    between atoms: O2_13  and  C10_14
    6  A    between atoms: C12_17  and  C13_18
    7  A    between atoms: C17_22  and  C18_23
    8  A    between atoms: N4_25  and  C19_26
    9  A    between atoms: C22_29  and  C23_30
   10  A    between atoms: C23_30  and  C24_31
                            x       y       z     vdW  Elec       q    Type
                         _______ _______ _______ _____ _____    ______ ____

>  <TORSDO>  (15) 
F 8

>  <grid_id>  (15) 
syk-prepared

>  <grid_path>  (15) 
syk_vina.pdbqt

>  <grid_filename>  (15) 
syk_vina.pdbqt

>  <docking_score>  (15) 
-10.311

>  <compound_name>  (15) 
CHEMBL3264998

>  <index_string>  (15) 
14:0:0

>  <s_m_Source_Path>  (15) 
/projects/mai/users/kmzp800_harry/pmx_colab/docking_jobs/syk/vina_prep/output

>  <s_m_Source_File>  (15) 
ptp1b_docked_conformers.sdf

>  <i_m_Source_File_Index>  (15) 
394

$$$$
CHEMBL3265027
     RDKit          3D

 39 43  0  0  1  0  0  0  0  0999 V2000
    5.8290   -0.5570   16.4220 C   0  0  0  0  0  0  0  0  0  0  0  0
    4.5550   -1.0120   16.3070 N   0  0  0  0  0  0  0  0  0  0  0  0
    4.0540   -0.2970   15.2860 C   0  0  0  0  0  0  0  0  0  0  0  0
    2.7680   -0.3810   14.7600 C   0  0  0  0  0  0  0  0  0  0  0  0
    1.8160   -1.3040   15.3070 N   0  0  0  0  0  0  0  0  0  0  0  0
    2.4570    0.4420   13.7140 N   0  0  0  0  0  0  0  0  0  0  0  0
    3.3610    1.3260   13.1850 C   0  0  0  0  0  0  0  0  0  0  0  0
    4.6550    1.3910   13.7360 C   0  0  0  0  0  0  0  0  0  0  0  0
    4.9370    0.5650   14.7720 N   0  0  0  0  0  0  0  0  0  0  0  0
    6.0730    0.4280   15.4670 C   0  0  0  0  0  0  0  0  0  0  0  0
    2.9700    2.1940   12.0530 C   0  0  0  0  0  0  0  0  0  0  0  0
    3.9040    2.5160   11.0320 C   0  0  0  0  0  0  0  0  0  0  0  0
    3.5410    3.3400    9.9510 C   0  0  0  0  0  0  0  0  0  0  0  0
    2.2370    3.8210    9.9280 C   0  0  0  0  0  0  0  0  0  0  0  0
    1.5800    4.6310    9.0320 C   0  0  0  0  0  0  0  0  0  0  0  0
    0.3150    4.7830    9.4990 N   0  0  0  0  0  0  0  0  0  0  0  0
    0.1600    4.1090   10.6350 N   0  0  0  0  0  0  0  0  0  0  0  0
    1.3340    3.5190   10.9010 C   0  0  0  0  0  0  0  0  0  0  0  0
    1.6560    2.7080   11.9840 C   0  0  0  0  0  0  0  0  0  0  0  0
    0.4620   -1.5060   14.8780 C   0  0  0  0  0  0  0  0  0  0  0  0
   -0.2240   -0.5600   14.0990 C   0  0  0  0  0  0  0  0  0  0  0  0
   -1.5420   -0.7940   13.7010 C   0  0  0  0  0  0  0  0  0  0  0  0
   -2.1860   -1.9750   14.0770 C   0  0  0  0  0  0  0  0  0  0  0  0
   -1.5110   -2.9220   14.8510 C   0  0  0  0  0  0  0  0  0  0  0  0
   -0.1910   -2.6870   15.2490 C   0  0  0  0  0  0  0  0  0  0  0  0
    6.5615   -0.9138   17.1610 H   0  0  0  0  0  0  0  0  0  0  0  0
    2.1398   -1.8850   16.0934 H   0  0  0  0  0  0  0  0  0  0  0  0
    5.4092    2.0869   13.3398 H   0  0  0  0  0  0  0  0  0  0  0  0
    7.0110    0.9820   15.3147 H   0  0  0  0  0  0  0  0  0  0  0  0
    4.9267    2.1149   11.0876 H   0  0  0  0  0  0  0  0  0  0  0  0
    4.2591    3.5931    9.1571 H   0  0  0  0  0  0  0  0  0  0  0  0
    1.9986    5.0705    8.1146 H   0  0  0  0  0  0  0  0  0  0  0  0
   -0.6980    4.0514   11.2020 H   0  0  0  0  0  0  0  0  0  0  0  0
    0.9127    2.4747   12.7605 H   0  0  0  0  0  0  0  0  0  0  0  0
    0.2800    0.3711   13.8005 H   0  0  0  0  0  0  0  0  0  0  0  0
   -2.0730   -0.0481   13.0913 H   0  0  0  0  0  0  0  0  0  0  0  0
   -3.2242   -2.1593   13.7638 H   0  0  0  0  0  0  0  0  0  0  0  0
   -2.0176   -3.8523   15.1474 H   0  0  0  0  0  0  0  0  0  0  0  0
    0.3375   -3.4354   15.8577 H   0  0  0  0  0  0  0  0  0  0  0  0
  1  2  1  0
  1 10  2  0
  2  3  2  0
  3  4  1  0
  3  9  1  0
  4  5  1  0
  4  6  2  0
  5 20  1  0
  6  7  1  0
  7  8  2  0
  7 11  1  0
  8  9  1  0
  9 10  1  0
 11 12  2  0
 11 19  1  0
 12 13  1  0
 13 14  2  0
 14 18  1  0
 14 15  1  0
 15 16  2  0
 16 17  1  0
 17 18  1  0
 18 19  2  0
 20 25  1  0
 20 21  2  0
 21 22  1  0
 22 23  2  0
 23 24  1  0
 24 25  2  0
  1 26  1  0
  5 27  1  0
  8 28  1  0
 10 29  1  0
 12 30  1  0
 13 31  1  0
 15 32  1  0
 17 33  1  0
 19 34  1  0
 21 35  1  0
 22 36  1  0
 23 37  1  0
 24 38  1  0
 25 39  1  0
M  END
>  <s_m_entry_id>  (16) 
578

>  <MODEL>  (16) 
2

>  <REMARK>  (16) 
 VINA RESULT:    -9.570      1.738      6.215
 INTER + INTRA:         -10.737
 INTER:                 -10.625
 INTRA:                  -0.111
 UNBOUND:                -0.047
  Name = /scratch/kmzp800/tmp0rv2xg1n/tmpe4ka_ijc.pdb
  2 active torsions:
  status: ('A' for Active; 'I' for Inactive)
    1  A    between atoms: N2_5  and  C4_6
    2  A    between atoms: C10_13  and  C11_14
                            x       y       z     vdW  Elec       q    Type
                         _______ _______ _______ _____ _____    ______ ____

>  <TORSDO>  (16) 
F 2

>  <grid_id>  (16) 
syk-prepared

>  <grid_path>  (16) 
syk_vina.pdbqt

>  <grid_filename>  (16) 
syk_vina.pdbqt

>  <docking_score>  (16) 
-9.57

>  <compound_name>  (16) 
CHEMBL3265027

>  <index_string>  (16) 
15:0:1

>  <s_m_Source_Path>  (16) 
/projects/mai/users/kmzp800_harry/pmx_colab/docking_jobs/syk/vina_prep/output

>  <s_m_Source_File>  (16) 
ptp1b_docked_conformers.sdf

>  <i_m_Source_File_Index>  (16) 
402

$$$$
CHEMBL3265006
     RDKit          3D

 51 54  0  0  1  0  0  0  0  0999 V2000
    5.6970   -0.5560   16.4760 C   0  0  0  0  0  0  0  0  0  0  0  0
    4.4120   -0.9620   16.3130 N   0  0  0  0  0  0  0  0  0  0  0  0
    3.9910   -0.2590   15.2490 C   0  0  0  0  0  0  0  0  0  0  0  0
    2.7270   -0.3060   14.6650 C   0  0  0  0  0  0  0  0  0  0  0  0
    1.7130   -1.1710   15.1930 N   0  0  0  0  0  0  0  0  0  0  0  0
    2.5010    0.4950   13.5820 N   0  0  0  0  0  0  0  0  0  0  0  0
    3.4650    1.3240   13.0700 C   0  0  0  0  0  0  0  0  0  0  0  0
    4.7340    1.3520   13.6810 C   0  0  0  0  0  0  0  0  0  0  0  0
    4.9320    0.5480   14.7520 N   0  0  0  0  0  0  0  0  0  0  0  0
    6.0270    0.3870   15.5050 C   0  0  0  0  0  0  0  0  0  0  0  0
    0.3730   -1.3320   14.7070 C   0  0  0  0  0  0  0  0  0  0  0  0
   -0.3500   -2.5170   14.8970 C   0  0  0  0  0  0  0  0  0  0  0  0
   -1.6540   -2.6340   14.4100 C   0  0  0  0  0  0  0  0  0  0  0  0
   -2.2550   -1.5670   13.7230 C   0  0  0  0  0  0  0  0  0  0  0  0
   -1.5360   -0.3780   13.5300 C   0  0  0  0  0  0  0  0  0  0  0  0
   -0.2260   -0.2700   14.0240 C   0  0  0  0  0  0  0  0  0  0  0  0
   -3.5600   -1.6670   13.2280 O   0  0  0  0  0  0  0  0  0  0  0  0
   -4.1760   -2.9120   12.9280 C   0  0  0  0  0  0  0  0  0  0  0  0
   -2.1420    0.6820   12.8450 O   0  0  0  0  0  0  0  0  0  0  0  0
   -1.6090    1.2270   11.6460 C   0  0  0  0  0  0  0  0  0  0  0  0
    3.1650    2.1700   11.8960 C   0  0  0  0  0  0  0  0  0  0  0  0
    4.1610    2.4330   10.9450 C   0  0  0  0  0  0  0  0  0  0  0  0
    3.8860    3.2300    9.8320 C   0  0  0  0  0  0  0  0  0  0  0  0
    2.6120    3.7740    9.6600 C   0  0  0  0  0  0  0  0  0  0  0  0
    1.6020    3.5230   10.5980 C   0  0  0  0  0  0  0  0  0  0  0  0
    1.8860    2.7220   11.7130 C   0  0  0  0  0  0  0  0  0  0  0  0
    0.2570    4.0960   10.4160 C   0  0  0  0  0  0  0  0  0  0  0  0
   -0.4310    3.7840    9.4050 O   0  0  0  0  0  0  0  0  0  0  0  0
   -0.2730    5.0050   11.3860 N   0  0  0  0  0  0  0  0  0  0  0  0
   -1.5930    5.5950   11.2490 C   0  0  0  0  0  0  0  0  0  0  0  0
    6.3781   -0.9185   17.2600 H   0  0  0  0  0  0  0  0  0  0  0  0
    1.9754   -1.7392   16.0110 H   0  0  0  0  0  0  0  0  0  0  0  0
    5.5350    2.0035   13.3016 H   0  0  0  0  0  0  0  0  0  0  0  0
    6.9938    0.8971   15.3818 H   0  0  0  0  0  0  0  0  0  0  0  0
    0.1117   -3.3597   15.4325 H   0  0  0  0  0  0  0  0  0  0  0  0
   -2.2137   -3.5681   14.5657 H   0  0  0  0  0  0  0  0  0  0  0  0
    0.3363    0.6630   13.8713 H   0  0  0  0  0  0  0  0  0  0  0  0
   -4.4320   -3.4295   13.8643 H   0  0  0  0  0  0  0  0  0  0  0  0
   -5.0914   -2.7368   12.3437 H   0  0  0  0  0  0  0  0  0  0  0  0
   -3.4814   -3.5334   12.3437 H   0  0  0  0  0  0  0  0  0  0  0  0
   -0.8595    1.9933   11.8930 H   0  0  0  0  0  0  0  0  0  0  0  0
   -1.1353    0.4268   11.0584 H   0  0  0  0  0  0  0  0  0  0  0  0
   -2.4195    1.6828   11.0584 H   0  0  0  0  0  0  0  0  0  0  0  0
    5.1670    2.0081   11.0767 H   0  0  0  0  0  0  0  0  0  0  0  0
    4.6736    3.4293    9.0904 H   0  0  0  0  0  0  0  0  0  0  0  0
    2.3999    4.4033    8.7831 H   0  0  0  0  0  0  0  0  0  0  0  0
    1.0976    2.5232   12.4539 H   0  0  0  0  0  0  0  0  0  0  0  0
    0.2995    5.2484   12.2069 H   0  0  0  0  0  0  0  0  0  0  0  0
   -2.0156    5.7839   12.2469 H   0  0  0  0  0  0  0  0  0  0  0  0
   -1.5151    6.5440   10.6982 H   0  0  0  0  0  0  0  0  0  0  0  0
   -2.2481    4.9040   10.6982 H   0  0  0  0  0  0  0  0  0  0  0  0
  1  2  1  0
  1 10  2  0
  2  3  2  0
  3  4  1  0
  3  9  1  0
  4  5  1  0
  4  6  2  0
  5 11  1  0
  6  7  1  0
  7  8  2  0
  7 21  1  0
  8  9  1  0
  9 10  1  0
 11 12  2  0
 11 16  1  0
 12 13  1  0
 13 14  2  0
 14 15  1  0
 14 17  1  0
 15 16  2  0
 15 19  1  0
 17 18  1  0
 19 20  1  0
 21 22  2  0
 21 26  1  0
 22 23  1  0
 23 24  2  0
 24 25  1  0
 25 26  2  0
 25 27  1  0
 27 29  1  0
 27 28  2  0
 29 30  1  0
  1 31  1  0
  5 32  1  0
  8 33  1  0
 10 34  1  0
 12 35  1  0
 13 36  1  0
 16 37  1  0
 18 38  1  0
 18 39  1  0
 18 40  1  0
 20 41  1  0
 20 42  1  0
 20 43  1  0
 22 44  1  0
 23 45  1  0
 24 46  1  0
 26 47  1  0
 29 48  1  0
 30 49  1  0
 30 50  1  0
 30 51  1  0
M  END
>  <s_m_entry_id>  (17) 
612

>  <MODEL>  (17) 
1

>  <REMARK>  (17) 
 VINA RESULT:    -9.846      0.000      0.000
 INTER + INTRA:         -13.280
 INTER:                 -12.696
 INTRA:                  -0.584
 UNBOUND:                -0.557
  Name = /scratch/kmzp800/tmpe5wzmsje/tmpnys91t1h.pdb
  8 active torsions:
  status: ('A' for Active; 'I' for Inactive)
    1  A    between atoms: N2_5  and  C4_6
    2  A    between atoms: C7_9  and  O1_10
    3  A    between atoms: O1_10  and  C8_11
    4  A    between atoms: C9_12  and  O2_13
    5  A    between atoms: O2_13  and  C10_14
    6  A    between atoms: C12_17  and  C13_18
    7  A    between atoms: C17_22  and  C18_23
    8  A    between atoms: N4_25  and  C19_26
                            x       y       z     vdW  Elec       q    Type
                         _______ _______ _______ _____ _____    ______ ____

>  <TORSDO>  (17) 
F 5

>  <grid_id>  (17) 
syk-prepared

>  <grid_path>  (17) 
syk_vina.pdbqt

>  <grid_filename>  (17) 
syk_vina.pdbqt

>  <docking_score>  (17) 
-9.846

>  <compound_name>  (17) 
CHEMBL3265006

>  <index_string>  (17) 
16:0:0

>  <s_m_Source_Path>  (17) 
/projects/mai/users/kmzp800_harry/pmx_colab/docking_jobs/syk/vina_prep/output

>  <s_m_Source_File>  (17) 
ptp1b_docked_conformers.sdf

>  <i_m_Source_File_Index>  (17) 
436

$$$$
CHEMBL3265003
     RDKit          3D

 65 70  0  0  1  0  0  0  0  0999 V2000
   -1.4240   -0.7390   13.7640 C   0  0  0  0  0  0  0  0  0  0  0  0
   -1.7600   -1.9310   14.4190 C   0  0  0  0  0  0  0  0  0  0  0  0
   -0.7950   -2.6330   15.1450 C   0  0  0  0  0  0  0  0  0  0  0  0
    0.5130   -2.1480   15.2200 C   0  0  0  0  0  0  0  0  0  0  0  0
    0.8680   -0.9560   14.5680 C   0  0  0  0  0  0  0  0  0  0  0  0
   -0.1100   -0.2610   13.8430 C   0  0  0  0  0  0  0  0  0  0  0  0
    2.2450   -0.4300   14.6350 C   0  0  0  0  0  0  0  0  0  0  0  0
    2.6400    0.5630   13.7750 N   0  0  0  0  0  0  0  0  0  0  0  0
    3.9010    1.0860   13.7960 C   0  0  0  0  0  0  0  0  0  0  0  0
    4.3010    2.1260   12.8920 N   0  0  0  0  0  0  0  0  0  0  0  0
    4.7930    0.5840   14.7390 C   0  0  0  0  0  0  0  0  0  0  0  0
    6.0680    0.9660   14.9250 N   0  0  0  0  0  0  0  0  0  0  0  0
    6.4920    0.1770   15.9450 C   0  0  0  0  0  0  0  0  0  0  0  0
    5.4640   -0.6670   16.3570 C   0  0  0  0  0  0  0  0  0  0  0  0
    4.4120   -0.3830   15.5770 N   0  0  0  0  0  0  0  0  0  0  0  0
    3.1710   -0.9260   15.5750 C   0  0  0  0  0  0  0  0  0  0  0  0
    3.5470    2.6470   11.7890 C   0  0  0  0  0  0  0  0  0  0  0  0
    4.1310    2.8980   10.5400 C   0  0  0  0  0  0  0  0  0  0  0  0
    3.3680    3.4290    9.4980 C   0  0  0  0  0  0  0  0  0  0  0  0
    2.0080    3.7200    9.6910 C   0  0  0  0  0  0  0  0  0  0  0  0
    1.4160    3.4700   10.9380 C   0  0  0  0  0  0  0  0  0  0  0  0
    2.1930    2.9360   11.9790 C   0  0  0  0  0  0  0  0  0  0  0  0
    1.2290    4.2620    8.6620 O   0  0  0  0  0  0  0  0  0  0  0  0
    0.2180    3.5230    7.9900 C   0  0  0  0  0  0  0  0  0  0  0  0
    0.0600    3.7590   11.1210 O   0  0  0  0  0  0  0  0  0  0  0  0
   -0.4320    5.0850   11.2600 C   0  0  0  0  0  0  0  0  0  0  0  0
   -2.1730    1.3700   12.6180 N   0  0  0  0  0  0  0  0  0  0  0  0
   -2.4400    0.0140   13.0060 C   0  0  0  0  0  0  0  0  0  0  0  0
   -3.5380   -0.5350   12.7140 O   0  0  0  0  0  0  0  0  0  0  0  0
   -4.7390    4.0000   10.4880 C   0  0  0  0  0  0  0  0  0  0  0  0
   -4.1900    2.8850    9.8380 C   0  0  0  0  0  0  0  0  0  0  0  0
   -3.3450    2.0120   10.5280 C   0  0  0  0  0  0  0  0  0  0  0  0
   -3.0370    2.2410   11.8770 C   0  0  0  0  0  0  0  0  0  0  0  0
   -3.5840    3.3520   12.5240 C   0  0  0  0  0  0  0  0  0  0  0  0
   -4.4310    4.2270   11.8350 C   0  0  0  0  0  0  0  0  0  0  0  0
   -6.8730    6.6130    9.1980 C   0  0  0  0  0  0  0  0  0  0  0  0
   -6.8750    5.7130    8.1950 N   0  0  0  0  0  0  0  0  0  0  0  0
   -6.1200    4.6850    8.5380 N   0  0  0  0  0  0  0  0  0  0  0  0
   -5.6300    4.9250    9.7660 C   0  0  0  0  0  0  0  0  0  0  0  0
   -6.0810    6.1450   10.2330 C   0  0  0  0  0  0  0  0  0  0  0  0
   -2.7888   -2.3160   14.3613 H   0  0  0  0  0  0  0  0  0  0  0  0
   -1.0650   -3.5679   15.6578 H   0  0  0  0  0  0  0  0  0  0  0  0
    1.2697   -2.7034   15.7935 H   0  0  0  0  0  0  0  0  0  0  0  0
    0.1586    0.6735   13.3286 H   0  0  0  0  0  0  0  0  0  0  0  0
    5.2290    2.5430   13.0525 H   0  0  0  0  0  0  0  0  0  0  0  0
    7.5010    0.2009   16.3825 H   0  0  0  0  0  0  0  0  0  0  0  0
    5.5068   -1.4163   17.1612 H   0  0  0  0  0  0  0  0  0  0  0  0
    2.8962   -1.7240   16.2804 H   0  0  0  0  0  0  0  0  0  0  0  0
    5.1963    2.6755   10.3796 H   0  0  0  0  0  0  0  0  0  0  0  0
    3.8350    3.6204    8.5206 H   0  0  0  0  0  0  0  0  0  0  0  0
    1.7293    2.7425   12.9575 H   0  0  0  0  0  0  0  0  0  0  0  0
   -0.4387    3.0430    8.7305 H   0  0  0  0  0  0  0  0  0  0  0  0
   -0.3749    4.2021    7.3597 H   0  0  0  0  0  0  0  0  0  0  0  0
    0.6851    2.7519    7.3597 H   0  0  0  0  0  0  0  0  0  0  0  0
   -0.5237    5.3320   12.3280 H   0  0  0  0  0  0  0  0  0  0  0  0
    0.2655    5.7871   10.7798 H   0  0  0  0  0  0  0  0  0  0  0  0
   -1.4186    5.1622   10.7798 H   0  0  0  0  0  0  0  0  0  0  0  0
   -1.2627    1.7588   12.9027 H   0  0  0  0  0  0  0  0  0  0  0  0
   -4.4257    2.6969    8.7801 H   0  0  0  0  0  0  0  0  0  0  0  0
   -2.9188    1.1401   10.0102 H   0  0  0  0  0  0  0  0  0  0  0  0
   -3.3473    3.5400   13.5817 H   0  0  0  0  0  0  0  0  0  0  0  0
   -4.8573    5.0980   12.3543 H   0  0  0  0  0  0  0  0  0  0  0  0
   -7.4157    7.5698    9.1950 H   0  0  0  0  0  0  0  0  0  0  0  0
   -5.9389    3.8479    7.9658 H   0  0  0  0  0  0  0  0  0  0  0  0
   -5.8629    6.6287   11.1966 H   0  0  0  0  0  0  0  0  0  0  0  0
  1  6  1  0
  1  2  2  0
  1 28  1  0
  2  3  1  0
  3  4  2  0
  4  5  1  0
  5  7  1  0
  5  6  2  0
  7 16  2  0
  7  8  1  0
  8  9  2  0
  9 11  1  0
  9 10  1  0
 10 17  1  0
 11 12  2  0
 11 15  1  0
 12 13  1  0
 13 14  2  0
 14 15  1  0
 15 16  1  0
 17 22  1  0
 17 18  2  0
 18 19  1  0
 19 20  2  0
 20 21  1  0
 20 23  1  0
 21 25  1  0
 21 22  2  0
 23 24  1  0
 25 26  1  0
 27 28  1  0
 27 33  1  0
 28 29  2  0
 30 35  1  0
 30 31  2  0
 30 39  1  0
 31 32  1  0
 32 33  2  0
 33 34  1  0
 34 35  2  0
 36 40  1  0
 36 37  2  0
 37 38  1  0
 38 39  1  0
 39 40  2  0
  2 41  1  0
  3 42  1  0
  4 43  1  0
  6 44  1  0
 10 45  1  0
 13 46  1  0
 14 47  1  0
 16 48  1  0
 18 49  1  0
 19 50  1  0
 22 51  1  0
 24 52  1  0
 24 53  1  0
 24 54  1  0
 26 55  1  0
 26 56  1  0
 26 57  1  0
 27 58  1  0
 31 59  1  0
 32 60  1  0
 34 61  1  0
 35 62  1  0
 36 63  1  0
 38 64  1  0
 40 65  1  0
M  END
>  <s_m_entry_id>  (18) 
650

>  <MODEL>  (18) 
3

>  <REMARK>  (18) 
 VINA RESULT:    -8.536      3.455      7.839
 INTER + INTRA:         -12.830
 INTER:                 -11.575
 INTRA:                  -1.255
 UNBOUND:                -0.801
  Name = /scratch/kmzp800/tmpv8oabis6/tmptp31v8bl.pdb
  9 active torsions:
  status: ('A' for Active; 'I' for Inactive)
    1  A    between atoms: C2_4  and  C3_5
    2  A    between atoms: C6_8  and  N3_9
    3  A    between atoms: C7_10  and  C8_12
    4  A    between atoms: C12_16  and  C13_17
    5  A    between atoms: N5_20  and  C15_21
    6  A    between atoms: C18_24  and  O2_25
    7  A    between atoms: O2_25  and  C19_26
    8  A    between atoms: C20_27  and  O3_28
    9  A    between atoms: O3_28  and  C21_29
                            x       y       z     vdW  Elec       q    Type
                         _______ _______ _______ _____ _____    ______ ____

>  <TORSDO>  (18) 
F 7

>  <grid_id>  (18) 
syk-prepared

>  <grid_path>  (18) 
syk_vina.pdbqt

>  <grid_filename>  (18) 
syk_vina.pdbqt

>  <docking_score>  (18) 
-8.536

>  <compound_name>  (18) 
CHEMBL3265003

>  <index_string>  (18) 
17:0:2

>  <s_m_Source_Path>  (18) 
/projects/mai/users/kmzp800_harry/pmx_colab/docking_jobs/syk/vina_prep/output

>  <s_m_Source_File>  (18) 
ptp1b_docked_conformers.sdf

>  <i_m_Source_File_Index>  (18) 
474

$$$$
CHEMBL3265018
     RDKit          3D

 47 51  0  0  1  0  0  0  0  0999 V2000
    5.6490   -0.5780   16.3660 C   0  0  0  0  0  0  0  0  0  0  0  0
    4.3720   -1.0220   16.2390 N   0  0  0  0  0  0  0  0  0  0  0  0
    3.8820   -0.2880   15.2250 C   0  0  0  0  0  0  0  0  0  0  0  0
    2.5980   -0.3540   14.6920 C   0  0  0  0  0  0  0  0  0  0  0  0
    1.6350   -1.2760   15.2230 N   0  0  0  0  0  0  0  0  0  0  0  0
    2.2990    0.4840   13.6560 N   0  0  0  0  0  0  0  0  0  0  0  0
    3.2120    1.3680   13.1430 C   0  0  0  0  0  0  0  0  0  0  0  0
    4.5040    1.4140   13.7010 C   0  0  0  0  0  0  0  0  0  0  0  0
    4.7740    0.5720   14.7270 N   0  0  0  0  0  0  0  0  0  0  0  0
    5.9050    0.4160   15.4260 C   0  0  0  0  0  0  0  0  0  0  0  0
    2.8340    2.2520   12.0210 C   0  0  0  0  0  0  0  0  0  0  0  0
    3.8070    2.6240   11.0570 C   0  0  0  0  0  0  0  0  0  0  0  0
    3.4750    3.4640    9.9790 C   0  0  0  0  0  0  0  0  0  0  0  0
    2.1600    3.9110    9.8990 C   0  0  0  0  0  0  0  0  0  0  0  0
    1.6220    4.7110    8.9690 N   0  0  0  0  0  0  0  0  0  0  0  0
    0.3280    4.8210    9.3710 C   0  0  0  0  0  0  0  0  0  0  0  0
    0.0450    4.1240   10.5050 N   0  0  0  0  0  0  0  0  0  0  0  0
    1.2210    3.5620   10.8150 C   0  0  0  0  0  0  0  0  0  0  0  0
    1.5110    2.7330   11.8940 C   0  0  0  0  0  0  0  0  0  0  0  0
    0.2820   -1.4620   14.7850 C   0  0  0  0  0  0  0  0  0  0  0  0
   -0.4440   -2.6230   15.0810 C   0  0  0  0  0  0  0  0  0  0  0  0
   -1.7590   -2.7660   14.6350 C   0  0  0  0  0  0  0  0  0  0  0  0
   -2.3710   -1.7500   13.8850 C   0  0  0  0  0  0  0  0  0  0  0  0
   -1.6500   -0.5830   13.5840 C   0  0  0  0  0  0  0  0  0  0  0  0
   -0.3270   -0.4500   14.0370 C   0  0  0  0  0  0  0  0  0  0  0  0
   -3.6870   -1.8750   13.4300 O   0  0  0  0  0  0  0  0  0  0  0  0
   -4.1800   -3.0590   12.8170 C   0  0  0  0  0  0  0  0  0  0  0  0
   -2.2650    0.4260   12.8350 O   0  0  0  0  0  0  0  0  0  0  0  0
   -1.6370    1.0480   11.7210 C   0  0  0  0  0  0  0  0  0  0  0  0
    6.3751   -0.9497   17.1040 H   0  0  0  0  0  0  0  0  0  0  0  0
    1.9499   -1.8690   16.0041 H   0  0  0  0  0  0  0  0  0  0  0  0
    5.2662    2.1084   13.3177 H   0  0  0  0  0  0  0  0  0  0  0  0
    6.8484    0.9640   15.2855 H   0  0  0  0  0  0  0  0  0  0  0  0
    4.8367    2.2495   11.1545 H   0  0  0  0  0  0  0  0  0  0  0  0
    4.2250    3.7559    9.2291 H   0  0  0  0  0  0  0  0  0  0  0  0
   -0.4208    5.4180    8.8298 H   0  0  0  0  0  0  0  0  0  0  0  0
   -0.8533    4.0473   11.0030 H   0  0  0  0  0  0  0  0  0  0  0  0
    0.7354    2.4606   12.6249 H   0  0  0  0  0  0  0  0  0  0  0  0
    0.0248   -3.4264   15.6682 H   0  0  0  0  0  0  0  0  0  0  0  0
   -2.3197   -3.6819   14.8732 H   0  0  0  0  0  0  0  0  0  0  0  0
    0.2380    0.4635   13.7998 H   0  0  0  0  0  0  0  0  0  0  0  0
   -4.4791   -3.7773   13.5946 H   0  0  0  0  0  0  0  0  0  0  0  0
   -5.0504   -2.8127   12.1910 H   0  0  0  0  0  0  0  0  0  0  0  0
   -3.3921   -3.5032   12.1910 H   0  0  0  0  0  0  0  0  0  0  0  0
   -0.8979    1.7801   12.0784 H   0  0  0  0  0  0  0  0  0  0  0  0
   -1.1317    0.2844   11.1115 H   0  0  0  0  0  0  0  0  0  0  0  0
   -2.3957    1.5607   11.1115 H   0  0  0  0  0  0  0  0  0  0  0  0
  1  2  1  0
  1 10  2  0
  2  3  2  0
  3  4  1  0
  3  9  1  0
  4  5  1  0
  4  6  2  0
  5 20  1  0
  6  7  1  0
  7  8  2  0
  7 11  1  0
  8  9  1  0
  9 10  1  0
 11 12  2  0
 11 19  1  0
 12 13  1  0
 13 14  2  0
 14 18  1  0
 14 15  1  0
 15 16  2  0
 16 17  1  0
 17 18  1  0
 18 19  2  0
 20 21  2  0
 20 25  1  0
 21 22  1  0
 22 23  2  0
 23 24  1  0
 23 26  1  0
 24 25  2  0
 24 28  1  0
 26 27  1  0
 28 29  1  0
  1 30  1  0
  5 31  1  0
  8 32  1  0
 10 33  1  0
 12 34  1  0
 13 35  1  0
 16 36  1  0
 17 37  1  0
 19 38  1  0
 21 39  1  0
 22 40  1  0
 25 41  1  0
 27 42  1  0
 27 43  1  0
 27 44  1  0
 29 45  1  0
 29 46  1  0
 29 47  1  0
M  END
>  <s_m_entry_id>  (19) 
662

>  <MODEL>  (19) 
1

>  <REMARK>  (19) 
 VINA RESULT:   -10.018      0.000      0.000
 INTER + INTRA:         -11.906
 INTER:                 -11.580
 INTRA:                  -0.326
 UNBOUND:                 0.455
  Name = /scratch/kmzp800/tmp4m7g88r0/tmpd4w9lb_y.pdb
  6 active torsions:
  status: ('A' for Active; 'I' for Inactive)
    1  A    between atoms: N2_5  and  C4_6
    2  A    between atoms: C7_9  and  O1_10
    3  A    between atoms: O1_10  and  C8_11
    4  A    between atoms: C9_12  and  O2_13
    5  A    between atoms: O2_13  and  C10_14
    6  A    between atoms: C12_17  and  C13_18
                            x       y       z     vdW  Elec       q    Type
                         _______ _______ _______ _____ _____    ______ ____

>  <TORSDO>  (19) 
F 4

>  <grid_id>  (19) 
syk-prepared

>  <grid_path>  (19) 
syk_vina.pdbqt

>  <grid_filename>  (19) 
syk_vina.pdbqt

>  <docking_score>  (19) 
-10.018

>  <compound_name>  (19) 
CHEMBL3265018

>  <index_string>  (19) 
18:0:0

>  <s_m_Source_Path>  (19) 
/projects/mai/users/kmzp800_harry/pmx_colab/docking_jobs/syk/vina_prep/output

>  <s_m_Source_File>  (19) 
ptp1b_docked_conformers.sdf

>  <i_m_Source_File_Index>  (19) 
486

$$$$
CHEMBL3265025
     RDKit          3D

 50 54  0  0  1  0  0  0  0  0999 V2000
    5.5840   -0.5680   16.2410 C   0  0  0  0  0  0  0  0  0  0  0  0
    4.3230   -1.0540   16.1090 N   0  0  0  0  0  0  0  0  0  0  0  0
    3.7950   -0.3030   15.1280 C   0  0  0  0  0  0  0  0  0  0  0  0
    2.5080   -0.3960   14.6060 C   0  0  0  0  0  0  0  0  0  0  0  0
    1.5920   -1.3810   15.1040 N   0  0  0  0  0  0  0  0  0  0  0  0
    2.1670    0.4640   13.6000 N   0  0  0  0  0  0  0  0  0  0  0  0
    3.0430    1.3990   13.1110 C   0  0  0  0  0  0  0  0  0  0  0  0
    4.3380    1.4750   13.6610 C   0  0  0  0  0  0  0  0  0  0  0  0
    4.6490    0.6090   14.6530 N   0  0  0  0  0  0  0  0  0  0  0  0
    5.7930    0.4690   15.3350 C   0  0  0  0  0  0  0  0  0  0  0  0
    2.6270    2.3040   12.0200 C   0  0  0  0  0  0  0  0  0  0  0  0
    3.5610    2.7230   11.0590 C   0  0  0  0  0  0  0  0  0  0  0  0
    3.1820    3.5840   10.0250 C   0  0  0  0  0  0  0  0  0  0  0  0
    1.8600    4.0280    9.9400 C   0  0  0  0  0  0  0  0  0  0  0  0
    0.9160    3.6130   10.8900 C   0  0  0  0  0  0  0  0  0  0  0  0
    1.3010    2.7610   11.9280 C   0  0  0  0  0  0  0  0  0  0  0  0
   -0.4040    4.0720   10.8100 O   0  0  0  0  0  0  0  0  0  0  0  0
   -0.9490    4.6680    9.6280 C   0  0  0  0  0  0  0  0  0  0  0  0
    0.1050    5.3500    8.8070 C   0  0  0  0  0  0  0  0  0  0  0  0
   -0.2210    6.2350    7.9750 O   0  0  0  0  0  0  0  0  0  0  0  0
    1.4710    4.9440    8.9180 N   0  0  0  0  0  0  0  0  0  0  0  0
    0.2130   -1.5400   14.7470 C   0  0  0  0  0  0  0  0  0  0  0  0
   -0.4400   -2.7220   15.1060 C   0  0  0  0  0  0  0  0  0  0  0  0
   -1.7870   -2.9110   14.7880 C   0  0  0  0  0  0  0  0  0  0  0  0
   -2.5040   -1.9130   14.1090 C   0  0  0  0  0  0  0  0  0  0  0  0
   -1.8590   -0.7200   13.7510 C   0  0  0  0  0  0  0  0  0  0  0  0
   -0.5030   -0.5410   14.0740 C   0  0  0  0  0  0  0  0  0  0  0  0
   -3.8530   -2.0850   13.7830 O   0  0  0  0  0  0  0  0  0  0  0  0
   -4.3040   -3.0780   12.8720 C   0  0  0  0  0  0  0  0  0  0  0  0
   -2.5820    0.2720   13.0800 O   0  0  0  0  0  0  0  0  0  0  0  0
   -1.9850    1.1650   12.1500 C   0  0  0  0  0  0  0  0  0  0  0  0
    6.3309   -0.9389   16.9583 H   0  0  0  0  0  0  0  0  0  0  0  0
    1.9665   -2.0475   15.7942 H   0  0  0  0  0  0  0  0  0  0  0  0
    5.0695    2.2115   13.2972 H   0  0  0  0  0  0  0  0  0  0  0  0
    6.7142    1.0560   15.2055 H   0  0  0  0  0  0  0  0  0  0  0  0
    4.6011    2.3703   11.1204 H   0  0  0  0  0  0  0  0  0  0  0  0
    3.9226    3.9111    9.2803 H   0  0  0  0  0  0  0  0  0  0  0  0
    0.5613    2.4456   12.6785 H   0  0  0  0  0  0  0  0  0  0  0  0
   -1.4209    3.8827    9.0192 H   0  0  0  0  0  0  0  0  0  0  0  0
   -1.6835    5.4263    9.9368 H   0  0  0  0  0  0  0  0  0  0  0  0
    2.1735    5.3123    8.2609 H   0  0  0  0  0  0  0  0  0  0  0  0
    0.1103   -3.5089   15.6426 H   0  0  0  0  0  0  0  0  0  0  0  0
   -2.2892   -3.8478   15.0714 H   0  0  0  0  0  0  0  0  0  0  0  0
    0.0027    0.3952   13.7950 H   0  0  0  0  0  0  0  0  0  0  0  0
   -4.6953   -3.9396   13.4329 H   0  0  0  0  0  0  0  0  0  0  0  0
   -5.1007   -2.6601   12.2390 H   0  0  0  0  0  0  0  0  0  0  0  0
   -3.4651   -3.4030   12.2390 H   0  0  0  0  0  0  0  0  0  0  0  0
   -1.4537    1.9598   12.6941 H   0  0  0  0  0  0  0  0  0  0  0  0
   -1.2729    0.6141   11.5180 H   0  0  0  0  0  0  0  0  0  0  0  0
   -2.7662    1.6125   11.5180 H   0  0  0  0  0  0  0  0  0  0  0  0
  1  2  1  0
  1 10  2  0
  2  3  2  0
  3  4  1  0
  3  9  1  0
  4  5  1  0
  4  6  2  0
  5 22  1  0
  6  7  1  0
  7  8  2  0
  7 11  1  0
  8  9  1  0
  9 10  1  0
 11 12  2  0
 11 16  1  0
 12 13  1  0
 13 14  2  0
 14 15  1  0
 14 21  1  0
 15 16  2  0
 15 17  1  0
 17 18  1  0
 18 19  1  0
 19 21  1  0
 19 20  2  0
 22 23  2  0
 22 27  1  0
 23 24  1  0
 24 25  2  0
 25 26  1  0
 25 28  1  0
 26 27  2  0
 26 30  1  0
 28 29  1  0
 30 31  1  0
  1 32  1  0
  5 33  1  0
  8 34  1  0
 10 35  1  0
 12 36  1  0
 13 37  1  0
 16 38  1  0
 18 39  1  0
 18 40  1  0
 21 41  1  0
 23 42  1  0
 24 43  1  0
 27 44  1  0
 29 45  1  0
 29 46  1  0
 29 47  1  0
 31 48  1  0
 31 49  1  0
 31 50  1  0
M  END
>  <s_m_entry_id>  (20) 
704

>  <MODEL>  (20) 
1

>  <REMARK>  (20) 
 VINA RESULT:   -10.931      0.000      0.000
 INTER + INTRA:         -12.411
 INTER:                 -11.951
 INTRA:                  -0.460
 UNBOUND:                 1.077
  Name = /scratch/kmzp800/tmp67h2zdbo/tmpv8mzzo4k.pdb
  6 active torsions:
  status: ('A' for Active; 'I' for Inactive)
    1  A    between atoms: N2_5  and  C4_6
    2  A    between atoms: C7_9  and  O1_10
    3  A    between atoms: O1_10  and  C8_11
    4  A    between atoms: C9_12  and  O2_13
    5  A    between atoms: O2_13  and  C10_14
    6  A    between atoms: C12_17  and  C13_18
                            x       y       z     vdW  Elec       q    Type
                         _______ _______ _______ _____ _____    ______ ____

>  <TORSDO>  (20) 
F 4

>  <grid_id>  (20) 
syk-prepared

>  <grid_path>  (20) 
syk_vina.pdbqt

>  <grid_filename>  (20) 
syk_vina.pdbqt

>  <docking_score>  (20) 
-10.931

>  <compound_name>  (20) 
CHEMBL3265025

>  <index_string>  (20) 
19:0:0

>  <s_m_Source_Path>  (20) 
/projects/mai/users/kmzp800_harry/pmx_colab/docking_jobs/syk/vina_prep/output

>  <s_m_Source_File>  (20) 
ptp1b_docked_conformers.sdf

>  <i_m_Source_File_Index>  (20) 
528

$$$$
CHEMBL3265008
     RDKit          3D

 48 51  0  0  1  0  0  0  0  0999 V2000
    5.5750   -0.6510   16.3950 C   0  0  0  0  0  0  0  0  0  0  0  0
    4.2870   -1.0520   16.2410 N   0  0  0  0  0  0  0  0  0  0  0  0
    3.8470   -0.3120   15.2090 C   0  0  0  0  0  0  0  0  0  0  0  0
    2.5740   -0.3390   14.6460 C   0  0  0  0  0  0  0  0  0  0  0  0
    1.5710   -1.2240   15.1660 N   0  0  0  0  0  0  0  0  0  0  0  0
    2.3270    0.4990   13.5950 N   0  0  0  0  0  0  0  0  0  0  0  0
    3.2830    1.3460   13.0970 C   0  0  0  0  0  0  0  0  0  0  0  0
    4.5620    1.3520   13.6850 C   0  0  0  0  0  0  0  0  0  0  0  0
    4.7790    0.5120   14.7250 N   0  0  0  0  0  0  0  0  0  0  0  0
    5.8880    0.3250   15.4510 C   0  0  0  0  0  0  0  0  0  0  0  0
    2.9690    2.2350   11.9570 C   0  0  0  0  0  0  0  0  0  0  0  0
    3.9620    2.5610   11.0260 C   0  0  0  0  0  0  0  0  0  0  0  0
    3.6740    3.3990    9.9480 C   0  0  0  0  0  0  0  0  0  0  0  0
    2.3880    3.9230    9.7860 C   0  0  0  0  0  0  0  0  0  0  0  0
    2.1480    4.7350    8.7260 F   0  0  0  0  0  0  0  0  0  0  0  0
    1.3740    3.6080   10.7140 C   0  0  0  0  0  0  0  0  0  0  0  0
    1.6810    2.7640   11.7920 C   0  0  0  0  0  0  0  0  0  0  0  0
   -0.0010    4.1390   10.5850 C   0  0  0  0  0  0  0  0  0  0  0  0
   -0.4740    4.9230   11.4490 O   0  0  0  0  0  0  0  0  0  0  0  0
   -0.8130    3.7650    9.4750 N   0  0  0  0  0  0  0  0  0  0  0  0
    0.2200   -1.3790   14.7090 C   0  0  0  0  0  0  0  0  0  0  0  0
   -0.4190   -2.6020   14.9230 C   0  0  0  0  0  0  0  0  0  0  0  0
   -1.7330   -2.7980   14.4960 C   0  0  0  0  0  0  0  0  0  0  0  0
   -2.4300   -1.7670   13.8440 C   0  0  0  0  0  0  0  0  0  0  0  0
   -1.7960   -0.5360   13.6240 C   0  0  0  0  0  0  0  0  0  0  0  0
   -0.4720   -0.3480   14.0590 C   0  0  0  0  0  0  0  0  0  0  0  0
   -3.7470   -1.9470   13.4080 O   0  0  0  0  0  0  0  0  0  0  0  0
   -4.2200   -3.1740   12.8700 C   0  0  0  0  0  0  0  0  0  0  0  0
   -2.4990    0.4840   12.9740 O   0  0  0  0  0  0  0  0  0  0  0  0
   -1.9040    1.3300   12.0010 C   0  0  0  0  0  0  0  0  0  0  0  0
    6.2698   -1.0398   17.1540 H   0  0  0  0  0  0  0  0  0  0  0  0
    1.8540   -1.8167   15.9594 H   0  0  0  0  0  0  0  0  0  0  0  0
    5.3568    2.0153   13.3131 H   0  0  0  0  0  0  0  0  0  0  0  0
    6.8528    0.8387   15.3272 H   0  0  0  0  0  0  0  0  0  0  0  0
    4.9768    2.1536   11.1450 H   0  0  0  0  0  0  0  0  0  0  0  0
    4.4623    3.6484    9.2225 H   0  0  0  0  0  0  0  0  0  0  0  0
    0.8967    2.5127   12.5212 H   0  0  0  0  0  0  0  0  0  0  0  0
   -1.7697    4.1366    9.3884 H   0  0  0  0  0  0  0  0  0  0  0  0
   -0.4431    3.1231    8.7594 H   0  0  0  0  0  0  0  0  0  0  0  0
    0.1172   -3.4167   15.4318 H   0  0  0  0  0  0  0  0  0  0  0  0
   -2.2261   -3.7656   14.6710 H   0  0  0  0  0  0  0  0  0  0  0  0
    0.0255    0.6179   13.8874 H   0  0  0  0  0  0  0  0  0  0  0  0
   -4.4833   -3.8571   13.6910 H   0  0  0  0  0  0  0  0  0  0  0  0
   -5.1095   -2.9844   12.2512 H   0  0  0  0  0  0  0  0  0  0  0  0
   -3.4334   -3.6305   12.2512 H   0  0  0  0  0  0  0  0  0  0  0  0
   -1.3416    2.1297   12.5051 H   0  0  0  0  0  0  0  0  0  0  0  0
   -1.2201    0.7411   11.3721 H   0  0  0  0  0  0  0  0  0  0  0  0
   -2.6894    1.7745   11.3721 H   0  0  0  0  0  0  0  0  0  0  0  0
  1  2  1  0
  1 10  2  0
  2  3  2  0
  3  4  1  0
  3  9  1  0
  4  5  1  0
  4  6  2  0
  5 21  1  0
  6  7  1  0
  7  8  2  0
  7 11  1  0
  8  9  1  0
  9 10  1  0
 11 12  2  0
 11 17  1  0
 12 13  1  0
 13 14  2  0
 14 16  1  0
 14 15  1  0
 16 17  2  0
 16 18  1  0
 18 19  2  0
 18 20  1  0
 21 22  2  0
 21 26  1  0
 22 23  1  0
 23 24  2  0
 24 25  1  0
 24 27  1  0
 25 26  2  0
 25 29  1  0
 27 28  1  0
 29 30  1  0
  1 31  1  0
  5 32  1  0
  8 33  1  0
 10 34  1  0
 12 35  1  0
 13 36  1  0
 17 37  1  0
 20 38  1  0
 20 39  1  0
 22 40  1  0
 23 41  1  0
 26 42  1  0
 28 43  1  0
 28 44  1  0
 28 45  1  0
 30 46  1  0
 30 47  1  0
 30 48  1  0
M  END
>  <s_m_entry_id>  (21) 
724

>  <MODEL>  (21) 
1

>  <REMARK>  (21) 
 VINA RESULT:   -10.992      0.000      0.000
 INTER + INTRA:         -13.132
 INTER:                 -12.462
 INTRA:                  -0.670
 UNBOUND:                 1.073
  Name = /scratch/kmzp800/tmpbu3wtpdx/tmp3u7age6i.pdb
  7 active torsions:
  status: ('A' for Active; 'I' for Inactive)
    1  A    between atoms: N2_5  and  C4_6
    2  A    between atoms: C7_9  and  O1_10
    3  A    between atoms: O1_10  and  C8_11
    4  A    between atoms: C9_12  and  O2_13
    5  A    between atoms: O2_13  and  C10_14
    6  A    between atoms: C12_17  and  C13_18
    7  A    between atoms: C17_23  and  C18_24
                            x       y       z     vdW  Elec       q    Type
                         _______ _______ _______ _____ _____    ______ ____

>  <TORSDO>  (21) 
F 5

>  <grid_id>  (21) 
syk-prepared

>  <grid_path>  (21) 
syk_vina.pdbqt

>  <grid_filename>  (21) 
syk_vina.pdbqt

>  <docking_score>  (21) 
-10.992

>  <compound_name>  (21) 
CHEMBL3265008

>  <index_string>  (21) 
20:0:0

>  <s_m_Source_Path>  (21) 
/projects/mai/users/kmzp800_harry/pmx_colab/docking_jobs/syk/vina_prep/output

>  <s_m_Source_File>  (21) 
ptp1b_docked_conformers.sdf

>  <i_m_Source_File_Index>  (21) 
548

$$$$
CHEMBL3265019
     RDKit          3D

 46 50  0  0  1  0  0  0  0  0999 V2000
    5.5480   -0.5960   16.2690 C   0  0  0  0  0  0  0  0  0  0  0  0
    4.2700   -1.0340   16.1500 N   0  0  0  0  0  0  0  0  0  0  0  0
    3.7700   -0.2880   15.1510 C   0  0  0  0  0  0  0  0  0  0  0  0
    2.4790   -0.3440   14.6320 C   0  0  0  0  0  0  0  0  0  0  0  0
    1.5250   -1.2710   15.1670 N   0  0  0  0  0  0  0  0  0  0  0  0
    2.1690    0.5080   13.6090 N   0  0  0  0  0  0  0  0  0  0  0  0
    3.0800    1.3950   13.0960 C   0  0  0  0  0  0  0  0  0  0  0  0
    4.3790    1.4310   13.6410 C   0  0  0  0  0  0  0  0  0  0  0  0
    4.6590    0.5760   14.6530 N   0  0  0  0  0  0  0  0  0  0  0  0
    5.7980    0.4090   15.3380 C   0  0  0  0  0  0  0  0  0  0  0  0
    2.6990    2.2970   11.9890 C   0  0  0  0  0  0  0  0  0  0  0  0
    3.6770    2.7150   11.0490 C   0  0  0  0  0  0  0  0  0  0  0  0
    3.3460    3.5740    9.9830 C   0  0  0  0  0  0  0  0  0  0  0  0
    2.0220    3.9890    9.9000 C   0  0  0  0  0  0  0  0  0  0  0  0
    1.4480    4.7950    8.9970 N   0  0  0  0  0  0  0  0  0  0  0  0
    0.1690    4.8750    9.3590 N   0  0  0  0  0  0  0  0  0  0  0  0
   -0.0900    4.1570   10.4510 N   0  0  0  0  0  0  0  0  0  0  0  0
    1.0790    3.5970   10.7910 C   0  0  0  0  0  0  0  0  0  0  0  0
    1.3650    2.7500   11.8560 C   0  0  0  0  0  0  0  0  0  0  0  0
    0.1640   -1.4620   14.7550 C   0  0  0  0  0  0  0  0  0  0  0  0
   -0.4660   -2.6660   15.0750 C   0  0  0  0  0  0  0  0  0  0  0  0
   -1.7890   -2.8960   14.6950 C   0  0  0  0  0  0  0  0  0  0  0  0
   -2.5050   -1.9180   13.9860 C   0  0  0  0  0  0  0  0  0  0  0  0
   -1.8810   -0.7050   13.6600 C   0  0  0  0  0  0  0  0  0  0  0  0
   -0.5480   -0.4840   14.0480 C   0  0  0  0  0  0  0  0  0  0  0  0
   -3.8320   -2.1310   13.5970 O   0  0  0  0  0  0  0  0  0  0  0  0
   -4.2340   -3.2410   12.8070 C   0  0  0  0  0  0  0  0  0  0  0  0
   -2.6040    0.2630   12.9540 O   0  0  0  0  0  0  0  0  0  0  0  0
   -1.9810    1.3110   12.2250 C   0  0  0  0  0  0  0  0  0  0  0  0
    6.2803   -0.9788   16.9951 H   0  0  0  0  0  0  0  0  0  0  0  0
    1.8553   -1.8699   15.9372 H   0  0  0  0  0  0  0  0  0  0  0  0
    5.1383    2.1287   13.2581 H   0  0  0  0  0  0  0  0  0  0  0  0
    6.7415    0.9560   15.1940 H   0  0  0  0  0  0  0  0  0  0  0  0
    4.7132    2.3613   11.1551 H   0  0  0  0  0  0  0  0  0  0  0  0
    4.0993    3.9008    9.2511 H   0  0  0  0  0  0  0  0  0  0  0  0
   -0.9954    4.0543   10.9313 H   0  0  0  0  0  0  0  0  0  0  0  0
    0.5842    2.4438   12.5678 H   0  0  0  0  0  0  0  0  0  0  0  0
    0.0846   -3.4392   15.6309 H   0  0  0  0  0  0  0  0  0  0  0  0
   -2.2739   -3.8492   14.9524 H   0  0  0  0  0  0  0  0  0  0  0  0
   -0.0583    0.4676   13.7937 H   0  0  0  0  0  0  0  0  0  0  0  0
   -4.5342   -4.0698   13.4650 H   0  0  0  0  0  0  0  0  0  0  0  0
   -5.0840   -2.9505   12.1721 H   0  0  0  0  0  0  0  0  0  0  0  0
   -3.3951   -3.5622   12.1721 H   0  0  0  0  0  0  0  0  0  0  0  0
   -1.5482    2.0390   12.9269 H   0  0  0  0  0  0  0  0  0  0  0  0
   -1.1841    0.8938   11.5918 H   0  0  0  0  0  0  0  0  0  0  0  0
   -2.7282    1.8117   11.5918 H   0  0  0  0  0  0  0  0  0  0  0  0
  1  2  1  0
  1 10  2  0
  2  3  2  0
  3  4  1  0
  3  9  1  0
  4  5  1  0
  4  6  2  0
  5 20  1  0
  6  7  1  0
  7  8  2  0
  7 11  1  0
  8  9  1  0
  9 10  1  0
 11 12  2  0
 11 19  1  0
 12 13  1  0
 13 14  2  0
 14 18  1  0
 14 15  1  0
 15 16  2  0
 16 17  1  0
 17 18  1  0
 18 19  2  0
 20 21  2  0
 20 25  1  0
 21 22  1  0
 22 23  2  0
 23 24  1  0
 23 26  1  0
 24 25  2  0
 24 28  1  0
 26 27  1  0
 28 29  1  0
  1 30  1  0
  5 31  1  0
  8 32  1  0
 10 33  1  0
 12 34  1  0
 13 35  1  0
 17 36  1  0
 19 37  1  0
 21 38  1  0
 22 39  1  0
 25 40  1  0
 27 41  1  0
 27 42  1  0
 27 43  1  0
 29 44  1  0
 29 45  1  0
 29 46  1  0
M  END
>  <s_m_entry_id>  (22) 
753

>  <MODEL>  (22) 
1

>  <REMARK>  (22) 
 VINA RESULT:    -9.737      0.000      0.000
 INTER + INTRA:         -12.077
 INTER:                 -11.623
 INTRA:                  -0.454
 UNBOUND:                -0.063
  Name = /scratch/kmzp800/tmpgv8l9s2o/tmppzscouyp.pdb
  6 active torsions:
  status: ('A' for Active; 'I' for Inactive)
    1  A    between atoms: N2_5  and  C4_6
    2  A    between atoms: C7_9  and  O1_10
    3  A    between atoms: O1_10  and  C8_11
    4  A    between atoms: C9_12  and  O2_13
    5  A    between atoms: O2_13  and  C10_14
    6  A    between atoms: C12_17  and  C13_18
                            x       y       z     vdW  Elec       q    Type
                         _______ _______ _______ _____ _____    ______ ____

>  <TORSDO>  (22) 
F 4

>  <grid_id>  (22) 
syk-prepared

>  <grid_path>  (22) 
syk_vina.pdbqt

>  <grid_filename>  (22) 
syk_vina.pdbqt

>  <docking_score>  (22) 
-9.737

>  <compound_name>  (22) 
CHEMBL3265019

>  <index_string>  (22) 
21:0:0

>  <s_m_Source_Path>  (22) 
/projects/mai/users/kmzp800_harry/pmx_colab/docking_jobs/syk/vina_prep/output

>  <s_m_Source_File>  (22) 
ptp1b_docked_conformers.sdf

>  <i_m_Source_File_Index>  (22) 
577

$$$$
CHEMBL3265013
     RDKit          3D

 51 54  0  0  1  0  0  0  0  0999 V2000
    5.6090   -0.5600   16.2670 C   0  0  0  0  0  0  0  0  0  0  0  0
    4.3630   -1.0990   16.2410 N   0  0  0  0  0  0  0  0  0  0  0  0
    3.7390   -0.4050   15.2760 C   0  0  0  0  0  0  0  0  0  0  0  0
    2.4240   -0.5700   14.8480 C   0  0  0  0  0  0  0  0  0  0  0  0
    1.5800   -1.5620   15.4480 N   0  0  0  0  0  0  0  0  0  0  0  0
    1.9790    0.2440   13.8440 N   0  0  0  0  0  0  0  0  0  0  0  0
    2.7780    1.1960   13.2640 C   0  0  0  0  0  0  0  0  0  0  0  0
    4.1040    1.3400   13.7170 C   0  0  0  0  0  0  0  0  0  0  0  0
    4.5190    0.5210   14.7120 N   0  0  0  0  0  0  0  0  0  0  0  0
    5.7120    0.4520   15.3160 C   0  0  0  0  0  0  0  0  0  0  0  0
    2.2450    2.0490   12.1820 C   0  0  0  0  0  0  0  0  0  0  0  0
    0.8780    2.3420   12.1280 C   0  0  0  0  0  0  0  0  0  0  0  0
    0.3660    3.1470   11.1100 C   0  0  0  0  0  0  0  0  0  0  0  0
    1.2040    3.6810   10.1180 C   0  0  0  0  0  0  0  0  0  0  0  0
    2.5900    3.3840   10.1710 C   0  0  0  0  0  0  0  0  0  0  0  0
    3.5670    3.8980    9.1690 C   0  0  0  0  0  0  0  0  0  0  0  0
    3.0900    2.5770   11.1970 C   0  0  0  0  0  0  0  0  0  0  0  0
    0.5860    4.5280    9.0670 C   0  0  0  0  0  0  0  0  0  0  0  0
    0.7330    5.7790    9.0660 O   0  0  0  0  0  0  0  0  0  0  0  0
   -0.1900    3.9300    8.0320 N   0  0  0  0  0  0  0  0  0  0  0  0
    0.2140   -1.8500   15.1200 C   0  0  0  0  0  0  0  0  0  0  0  0
   -0.3710   -3.0930   15.3940 C   0  0  0  0  0  0  0  0  0  0  0  0
   -1.7040   -3.3350   15.0600 C   0  0  0  0  0  0  0  0  0  0  0  0
   -2.4750   -2.3360   14.4440 C   0  0  0  0  0  0  0  0  0  0  0  0
   -1.8960   -1.0890   14.1650 C   0  0  0  0  0  0  0  0  0  0  0  0
   -0.5530   -0.8560   14.5070 C   0  0  0  0  0  0  0  0  0  0  0  0
   -3.8130   -2.5600   14.1000 O   0  0  0  0  0  0  0  0  0  0  0  0
   -4.2010   -3.1600   12.8710 C   0  0  0  0  0  0  0  0  0  0  0  0
   -2.6700   -0.0980   13.5510 O   0  0  0  0  0  0  0  0  0  0  0  0
   -2.1900    0.6950   12.4730 C   0  0  0  0  0  0  0  0  0  0  0  0
    6.4188   -0.8765   16.9409 H   0  0  0  0  0  0  0  0  0  0  0  0
    2.0012   -2.1301   16.1968 H   0  0  0  0  0  0  0  0  0  0  0  0
    4.7778    2.0906   13.2783 H   0  0  0  0  0  0  0  0  0  0  0  0
    6.5963    1.0708   15.1035 H   0  0  0  0  0  0  0  0  0  0  0  0
    0.2018    1.9346   12.8940 H   0  0  0  0  0  0  0  0  0  0  0  0
   -0.7115    3.3669   11.0841 H   0  0  0  0  0  0  0  0  0  0  0  0
    4.4241    4.3489    9.6905 H   0  0  0  0  0  0  0  0  0  0  0  0
    3.9170    3.0673    8.5386 H   0  0  0  0  0  0  0  0  0  0  0  0
    3.0807    4.6570    8.5386 H   0  0  0  0  0  0  0  0  0  0  0  0
    4.1663    2.3524   11.2317 H   0  0  0  0  0  0  0  0  0  0  0  0
   -0.6181    4.5190    7.3035 H   0  0  0  0  0  0  0  0  0  0  0  0
   -0.3227    2.9088    8.0124 H   0  0  0  0  0  0  0  0  0  0  0  0
    0.2241   -3.8831   15.8754 H   0  0  0  0  0  0  0  0  0  0  0  0
   -2.1537   -4.3144   15.2806 H   0  0  0  0  0  0  0  0  0  0  0  0
   -0.0995    0.1222   14.2891 H   0  0  0  0  0  0  0  0  0  0  0  0
   -4.7879   -4.0676   13.0753 H   0  0  0  0  0  0  0  0  0  0  0  0
   -4.8118   -2.4506   12.2934 H   0  0  0  0  0  0  0  0  0  0  0  0
   -3.3035   -3.4260   12.2934 H   0  0  0  0  0  0  0  0  0  0  0  0
   -1.6590    1.5722   12.8712 H   0  0  0  0  0  0  0  0  0  0  0  0
   -1.5015    0.0981   11.8569 H   0  0  0  0  0  0  0  0  0  0  0  0
   -3.0382    1.0282   11.8569 H   0  0  0  0  0  0  0  0  0  0  0  0
  1  2  1  0
  1 10  2  0
  2  3  2  0
  3  4  1  0
  3  9  1  0
  4  5  1  0
  4  6  2  0
  5 21  1  0
  6  7  1  0
  7  8  2  0
  7 11  1  0
  8  9  1  0
  9 10  1  0
 11 12  2  0
 11 17  1  0
 12 13  1  0
 13 14  2  0
 14 15  1  0
 14 18  1  0
 15 17  2  0
 15 16  1  0
 18 19  2  0
 18 20  1  0
 21 22  2  0
 21 26  1  0
 22 23  1  0
 23 24  2  0
 24 25  1  0
 24 27  1  0
 25 26  2  0
 25 29  1  0
 27 28  1  0
 29 30  1  0
  1 31  1  0
  5 32  1  0
  8 33  1  0
 10 34  1  0
 12 35  1  0
 13 36  1  0
 16 37  1  0
 16 38  1  0
 16 39  1  0
 17 40  1  0
 20 41  1  0
 20 42  1  0
 22 43  1  0
 23 44  1  0
 26 45  1  0
 28 46  1  0
 28 47  1  0
 28 48  1  0
 30 49  1  0
 30 50  1  0
 30 51  1  0
M  END
>  <s_m_entry_id>  (23) 
777

>  <MODEL>  (23) 
2

>  <REMARK>  (23) 
 VINA RESULT:    -9.671      1.719      6.698
 INTER + INTRA:         -12.430
 INTER:                 -12.095
 INTRA:                  -0.335
 UNBOUND:                 0.068
  Name = /scratch/kmzp800/tmpno1c73x7/tmpcfzp9_kc.pdb
  8 active torsions:
  status: ('A' for Active; 'I' for Inactive)
    1  A    between atoms: N2_5  and  C4_6
    2  A    between atoms: C7_9  and  O1_10
    3  A    between atoms: O1_10  and  C8_11
    4  A    between atoms: C9_12  and  O2_13
    5  A    between atoms: O2_13  and  C10_14
    6  A    between atoms: C12_17  and  C13_18
    7  A    between atoms: C16_21  and  C17_22
    8  A    between atoms: C18_25  and  C19_26
                            x       y       z     vdW  Elec       q    Type
                         _______ _______ _______ _____ _____    ______ ____

>  <TORSDO>  (23) 
F 5

>  <grid_id>  (23) 
syk-prepared

>  <grid_path>  (23) 
syk_vina.pdbqt

>  <grid_filename>  (23) 
syk_vina.pdbqt

>  <docking_score>  (23) 
-9.671

>  <compound_name>  (23) 
CHEMBL3265013

>  <index_string>  (23) 
22:0:1

>  <s_m_Source_Path>  (23) 
/projects/mai/users/kmzp800_harry/pmx_colab/docking_jobs/syk/vina_prep/output

>  <s_m_Source_File>  (23) 
ptp1b_docked_conformers.sdf

>  <i_m_Source_File_Index>  (23) 
601

$$$$
CHEMBL3265015
     RDKit          3D

 51 54  0  0  1  0  0  0  0  0999 V2000
    5.5880   -0.5820   16.2380 C   0  0  0  0  0  0  0  0  0  0  0  0
    4.3210   -1.0630   16.1470 N   0  0  0  0  0  0  0  0  0  0  0  0
    3.7710   -0.3230   15.1690 C   0  0  0  0  0  0  0  0  0  0  0  0
    2.4730   -0.4170   14.6820 C   0  0  0  0  0  0  0  0  0  0  0  0
    1.5570   -1.3800   15.2240 N   0  0  0  0  0  0  0  0  0  0  0  0
    2.1120    0.4350   13.6770 N   0  0  0  0  0  0  0  0  0  0  0  0
    2.9740    1.3620   13.1460 C   0  0  0  0  0  0  0  0  0  0  0  0
    4.2810    1.4300   13.6630 C   0  0  0  0  0  0  0  0  0  0  0  0
    4.6160    0.5760   14.6590 N   0  0  0  0  0  0  0  0  0  0  0  0
    5.7770    0.4410   15.3120 C   0  0  0  0  0  0  0  0  0  0  0  0
    2.4960    2.2550   12.0490 C   0  0  0  0  0  0  0  0  0  0  0  0
    1.1370    2.6120   12.0570 C   0  0  0  0  0  0  0  0  0  0  0  0
    0.5970    3.4420   11.0740 C   0  0  0  0  0  0  0  0  0  0  0  0
    1.4060    3.9390   10.0500 C   0  0  0  0  0  0  0  0  0  0  0  0
    2.7620    3.5940   10.0240 C   0  0  0  0  0  0  0  0  0  0  0  0
    3.3160    2.7640   11.0040 C   0  0  0  0  0  0  0  0  0  0  0  0
    4.7700    2.4630   10.8760 C   0  0  0  0  0  0  0  0  0  0  0  0
    0.8390    4.8160    9.0100 C   0  0  0  0  0  0  0  0  0  0  0  0
    1.3700    5.9300    8.7570 O   0  0  0  0  0  0  0  0  0  0  0  0
   -0.3160    4.4130    8.2780 N   0  0  0  0  0  0  0  0  0  0  0  0
    0.1950   -1.5980   14.8290 C   0  0  0  0  0  0  0  0  0  0  0  0
   -0.4570   -2.8180   15.0490 C   0  0  0  0  0  0  0  0  0  0  0  0
   -1.7830   -2.9910   14.6500 C   0  0  0  0  0  0  0  0  0  0  0  0
   -2.4790   -1.9460   14.0240 C   0  0  0  0  0  0  0  0  0  0  0  0
   -1.8320   -0.7200   13.8000 C   0  0  0  0  0  0  0  0  0  0  0  0
   -0.4980   -0.5570   14.2060 C   0  0  0  0  0  0  0  0  0  0  0  0
   -3.8090   -2.1010   13.6170 O   0  0  0  0  0  0  0  0  0  0  0  0
   -4.2530   -3.2060   12.8420 C   0  0  0  0  0  0  0  0  0  0  0  0
   -2.5320    0.3180   13.1750 O   0  0  0  0  0  0  0  0  0  0  0  0
   -2.0310    1.0080   12.0380 C   0  0  0  0  0  0  0  0  0  0  0  0
    6.3524   -0.9468   16.9399 H   0  0  0  0  0  0  0  0  0  0  0  0
    1.9170   -1.9805   15.9795 H   0  0  0  0  0  0  0  0  0  0  0  0
    5.0087    2.1552   13.2698 H   0  0  0  0  0  0  0  0  0  0  0  0
    6.6967    1.0222   15.1495 H   0  0  0  0  0  0  0  0  0  0  0  0
    0.4847    2.2288   12.8555 H   0  0  0  0  0  0  0  0  0  0  0  0
   -0.4704    3.7059   11.1058 H   0  0  0  0  0  0  0  0  0  0  0  0
    3.4032    3.9823    9.2189 H   0  0  0  0  0  0  0  0  0  0  0  0
    5.2149    2.3709   11.8778 H   0  0  0  0  0  0  0  0  0  0  0  0
    4.9020    1.5185   10.3279 H   0  0  0  0  0  0  0  0  0  0  0  0
    5.2662    3.2775   10.3279 H   0  0  0  0  0  0  0  0  0  0  0  0
   -0.7073    5.0306    7.5525 H   0  0  0  0  0  0  0  0  0  0  0  0
   -0.7592    3.5043    8.4747 H   0  0  0  0  0  0  0  0  0  0  0  0
    0.0791   -3.6442   15.5389 H   0  0  0  0  0  0  0  0  0  0  0  0
   -2.2859   -3.9531   14.8275 H   0  0  0  0  0  0  0  0  0  0  0  0
    0.0086    0.4036   14.0312 H   0  0  0  0  0  0  0  0  0  0  0  0
   -4.5785   -4.0161   13.5112 H   0  0  0  0  0  0  0  0  0  0  0  0
   -5.0955   -2.8939   12.2074 H   0  0  0  0  0  0  0  0  0  0  0  0
   -3.4287   -3.5636   12.2074 H   0  0  0  0  0  0  0  0  0  0  0  0
   -1.4143    1.8574   12.3669 H   0  0  0  0  0  0  0  0  0  0  0  0
   -1.4187    0.3226   11.4335 H   0  0  0  0  0  0  0  0  0  0  0  0
   -2.8723    1.3780   11.4335 H   0  0  0  0  0  0  0  0  0  0  0  0
  1  2  1  0
  1 10  2  0
  2  3  2  0
  3  4  1  0
  3  9  1  0
  4  5  1  0
  4  6  2  0
  5 21  1  0
  6  7  1  0
  7  8  2  0
  7 11  1  0
  8  9  1  0
  9 10  1  0
 11 12  2  0
 11 16  1  0
 12 13  1  0
 13 14  2  0
 14 15  1  0
 14 18  1  0
 15 16  2  0
 16 17  1  0
 18 19  2  0
 18 20  1  0
 21 22  2  0
 21 26  1  0
 22 23  1  0
 23 24  2  0
 24 25  1  0
 24 27  1  0
 25 26  2  0
 25 29  1  0
 27 28  1  0
 29 30  1  0
  1 31  1  0
  5 32  1  0
  8 33  1  0
 10 34  1  0
 12 35  1  0
 13 36  1  0
 15 37  1  0
 17 38  1  0
 17 39  1  0
 17 40  1  0
 20 41  1  0
 20 42  1  0
 22 43  1  0
 23 44  1  0
 26 45  1  0
 28 46  1  0
 28 47  1  0
 28 48  1  0
 30 49  1  0
 30 50  1  0
 30 51  1  0
M  END
>  <s_m_entry_id>  (24) 
811

>  <MODEL>  (24) 
1

>  <REMARK>  (24) 
 VINA RESULT:   -10.180      0.000      0.000
 INTER + INTRA:         -12.195
 INTER:                 -12.336
 INTRA:                   0.140
 UNBOUND:                 0.961
  Name = /scratch/kmzp800/tmpqooz1kcy/tmpnb527eng.pdb
  8 active torsions:
  status: ('A' for Active; 'I' for Inactive)
    1  A    between atoms: N2_5  and  C4_6
    2  A    between atoms: C7_9  and  O1_10
    3  A    between atoms: O1_10  and  C8_11
    4  A    between atoms: C9_12  and  O2_13
    5  A    between atoms: O2_13  and  C10_14
    6  A    between atoms: C12_17  and  C13_18
    7  A    between atoms: C16_21  and  C17_22
    8  A    between atoms: C19_26  and  C20_27
                            x       y       z     vdW  Elec       q    Type
                         _______ _______ _______ _____ _____    ______ ____

>  <TORSDO>  (24) 
F 5

>  <grid_id>  (24) 
syk-prepared

>  <grid_path>  (24) 
syk_vina.pdbqt

>  <grid_filename>  (24) 
syk_vina.pdbqt

>  <docking_score>  (24) 
-10.18

>  <compound_name>  (24) 
CHEMBL3265015

>  <index_string>  (24) 
23:0:0

>  <s_m_Source_Path>  (24) 
/projects/mai/users/kmzp800_harry/pmx_colab/docking_jobs/syk/vina_prep/output

>  <s_m_Source_File>  (24) 
ptp1b_docked_conformers.sdf

>  <i_m_Source_File_Index>  (24) 
635

$$$$
CHEMBL3264996
     RDKit          3D

 64 68  0  0  1  0  0  0  0  0999 V2000
    5.8770   -0.5760   16.5010 C   0  0  0  0  0  0  0  0  0  0  0  0
    4.5750   -0.9550   16.4600 N   0  0  0  0  0  0  0  0  0  0  0  0
    4.0770   -0.2640   15.4210 C   0  0  0  0  0  0  0  0  0  0  0  0
    2.7690   -0.2990   14.9450 C   0  0  0  0  0  0  0  0  0  0  0  0
    1.7780   -1.1160   15.5850 N   0  0  0  0  0  0  0  0  0  0  0  0
    2.4620    0.4930   13.8750 N   0  0  0  0  0  0  0  0  0  0  0  0
    3.3940    1.2910   13.2650 C   0  0  0  0  0  0  0  0  0  0  0  0
    4.7140    1.2980   13.7580 C   0  0  0  0  0  0  0  0  0  0  0  0
    4.9890    0.5100   14.8250 N   0  0  0  0  0  0  0  0  0  0  0  0
    6.1420    0.3390   15.4830 C   0  0  0  0  0  0  0  0  0  0  0  0
    0.4780   -1.4270   15.0690 C   0  0  0  0  0  0  0  0  0  0  0  0
   -0.1300   -2.6260   15.4460 C   0  0  0  0  0  0  0  0  0  0  0  0
   -1.3870   -2.9680   14.9420 C   0  0  0  0  0  0  0  0  0  0  0  0
   -2.0500   -2.1170   14.0440 C   0  0  0  0  0  0  0  0  0  0  0  0
   -1.4400   -0.9180   13.6480 C   0  0  0  0  0  0  0  0  0  0  0  0
   -0.1780   -0.5810   14.1650 C   0  0  0  0  0  0  0  0  0  0  0  0
   -3.3100   -2.4440   13.5310 O   0  0  0  0  0  0  0  0  0  0  0  0
   -4.1690   -3.3940   14.1470 C   0  0  0  0  0  0  0  0  0  0  0  0
   -2.0980   -0.0800   12.7400 O   0  0  0  0  0  0  0  0  0  0  0  0
   -1.4150    0.6350   11.7200 C   0  0  0  0  0  0  0  0  0  0  0  0
    3.0050    2.1340   12.1150 C   0  0  0  0  0  0  0  0  0  0  0  0
    3.9210    2.4290   11.0930 C   0  0  0  0  0  0  0  0  0  0  0  0
    3.5420    3.2280   10.0130 C   0  0  0  0  0  0  0  0  0  0  0  0
    2.2450    3.7430    9.9450 C   0  0  0  0  0  0  0  0  0  0  0  0
    1.3180    3.4630   10.9580 C   0  0  0  0  0  0  0  0  0  0  0  0
    1.7050    2.6560   12.0370 C   0  0  0  0  0  0  0  0  0  0  0  0
   -0.0470    4.0150   10.8910 C   0  0  0  0  0  0  0  0  0  0  0  0
   -0.4520    4.5540    9.8260 O   0  0  0  0  0  0  0  0  0  0  0  0
   -0.9060    3.9280   12.0390 N   0  0  0  0  0  0  0  0  0  0  0  0
   -2.2460    4.4250   12.1490 C   0  0  0  0  0  0  0  0  0  0  0  0
   -3.3380    3.7570   11.5740 C   0  0  0  0  0  0  0  0  0  0  0  0
   -4.6300    4.2730   11.7000 C   0  0  0  0  0  0  0  0  0  0  0  0
   -4.8490    5.4640   12.4040 C   0  0  0  0  0  0  0  0  0  0  0  0
   -3.7580    6.1330   12.9780 C   0  0  0  0  0  0  0  0  0  0  0  0
   -2.4670    5.6150   12.8510 C   0  0  0  0  0  0  0  0  0  0  0  0
   -6.2120    6.0050   12.5350 C   0  0  0  0  0  0  0  0  0  0  0  0
   -6.5720    6.5570   13.6120 O   0  0  0  0  0  0  0  0  0  0  0  0
   -7.1030    5.9040   11.4640 O   0  0  0  0  0  0  0  0  0  0  0  0
   -7.0870    6.8270   10.3850 C   0  0  0  0  0  0  0  0  0  0  0  0
    6.6159   -0.9379   17.2311 H   0  0  0  0  0  0  0  0  0  0  0  0
    2.0243   -1.5165   16.5014 H   0  0  0  0  0  0  0  0  0  0  0  0
    5.4928    1.9206   13.2934 H   0  0  0  0  0  0  0  0  0  0  0  0
    7.1052    0.8232   15.2644 H   0  0  0  0  0  0  0  0  0  0  0  0
    0.3833   -3.3045   16.1432 H   0  0  0  0  0  0  0  0  0  0  0  0
   -1.8609   -3.9113   15.2512 H   0  0  0  0  0  0  0  0  0  0  0  0
    0.3015    0.3595   13.8560 H   0  0  0  0  0  0  0  0  0  0  0  0
   -4.0891   -3.3057   15.2405 H   0  0  0  0  0  0  0  0  0  0  0  0
   -5.2075   -3.2034   13.8386 H   0  0  0  0  0  0  0  0  0  0  0  0
   -3.8752   -4.4082   13.8386 H   0  0  0  0  0  0  0  0  0  0  0  0
   -0.7244    1.3580   12.1786 H   0  0  0  0  0  0  0  0  0  0  0  0
   -0.8464   -0.0701   11.0958 H   0  0  0  0  0  0  0  0  0  0  0  0
   -2.1453    1.1707   11.0958 H   0  0  0  0  0  0  0  0  0  0  0  0
    4.9440    2.0279   11.1436 H   0  0  0  0  0  0  0  0  0  0  0  0
    4.2650    3.4523    9.2149 H   0  0  0  0  0  0  0  0  0  0  0  0
    1.9499    4.3715    9.0918 H   0  0  0  0  0  0  0  0  0  0  0  0
    0.9802    2.4291   12.8327 H   0  0  0  0  0  0  0  0  0  0  0  0
   -0.5184    3.4594   12.8703 H   0  0  0  0  0  0  0  0  0  0  0  0
   -3.1755    2.8206   11.0202 H   0  0  0  0  0  0  0  0  0  0  0  0
   -5.4788    3.7419   11.2445 H   0  0  0  0  0  0  0  0  0  0  0  0
   -3.9198    7.0701   13.5308 H   0  0  0  0  0  0  0  0  0  0  0  0
   -1.6181    6.1463   13.3061 H   0  0  0  0  0  0  0  0  0  0  0  0
   -7.0692    7.8532   10.7806 H   0  0  0  0  0  0  0  0  0  0  0  0
   -6.1917    6.6558    9.7693 H   0  0  0  0  0  0  0  0  0  0  0  0
   -7.9877    6.6869    9.7693 H   0  0  0  0  0  0  0  0  0  0  0  0
  1  2  1  0
  1 10  2  0
  2  3  2  0
  3  4  1  0
  3  9  1  0
  4  5  1  0
  4  6  2  0
  5 11  1  0
  6  7  1  0
  7  8  2  0
  7 21  1  0
  8  9  1  0
  9 10  1  0
 11 12  2  0
 11 16  1  0
 12 13  1  0
 13 14  2  0
 14 15  1  0
 14 17  1  0
 15 16  2  0
 15 19  1  0
 17 18  1  0
 19 20  1  0
 21 22  2  0
 21 26  1  0
 22 23  1  0
 23 24  2  0
 24 25  1  0
 25 26  2  0
 25 27  1  0
 27 29  1  0
 27 28  2  0
 29 30  1  0
 30 35  1  0
 30 31  2  0
 31 32  1  0
 32 33  2  0
 33 36  1  0
 33 34  1  0
 34 35  2  0
 36 37  2  0
 36 38  1  0
 38 39  1  0
  1 40  1  0
  5 41  1  0
  8 42  1  0
 10 43  1  0
 12 44  1  0
 13 45  1  0
 16 46  1  0
 18 47  1  0
 18 48  1  0
 18 49  1  0
 20 50  1  0
 20 51  1  0
 20 52  1  0
 22 53  1  0
 23 54  1  0
 24 55  1  0
 26 56  1  0
 29 57  1  0
 31 58  1  0
 32 59  1  0
 34 60  1  0
 35 61  1  0
 39 62  1  0
 39 63  1  0
 39 64  1  0
M  END
>  <s_m_entry_id>  (25) 
838

>  <MODEL>  (25) 
1

>  <REMARK>  (25) 
 VINA RESULT:   -11.564      0.000      0.000
 INTER + INTRA:         -16.157
 INTER:                 -15.120
 INTRA:                  -1.037
 UNBOUND:                 0.816
  Name = /scratch/kmzp800/tmppnvfteba/tmp17sx_bu0.pdb
  11 active torsions:
  status: ('A' for Active; 'I' for Inactive)
    1  A    between atoms: N2_5  and  C4_6
    2  A    between atoms: C7_9  and  O1_10
    3  A    between atoms: O1_10  and  C8_11
    4  A    between atoms: C9_12  and  O2_13
    5  A    between atoms: O2_13  and  C10_14
    6  A    between atoms: C12_17  and  C13_18
    7  A    between atoms: C17_22  and  C18_23
    8  A    between atoms: N4_25  and  C19_26
    9  A    between atoms: C22_29  and  C23_30
   10  A    between atoms: C23_30  and  O5_32
   11  A    between atoms: O5_32  and  C24_33
                            x       y       z     vdW  Elec       q    Type
                         _______ _______ _______ _____ _____    ______ ____

>  <TORSDO>  (25) 
F 8

>  <grid_id>  (25) 
syk-prepared

>  <grid_path>  (25) 
syk_vina.pdbqt

>  <grid_filename>  (25) 
syk_vina.pdbqt

>  <docking_score>  (25) 
-11.564

>  <compound_name>  (25) 
CHEMBL3264996

>  <index_string>  (25) 
24:0:0

>  <s_m_Source_Path>  (25) 
/projects/mai/users/kmzp800_harry/pmx_colab/docking_jobs/syk/vina_prep/output

>  <s_m_Source_File>  (25) 
ptp1b_docked_conformers.sdf

>  <i_m_Source_File_Index>  (25) 
662

$$$$
CHEMBL3265022
     RDKit          3D

 50 54  0  0  1  0  0  0  0  0999 V2000
    5.5560   -0.6000   16.2490 C   0  0  0  0  0  0  0  0  0  0  0  0
    4.2740   -1.0280   16.1220 N   0  0  0  0  0  0  0  0  0  0  0  0
    3.7870   -0.2730   15.1220 C   0  0  0  0  0  0  0  0  0  0  0  0
    2.4980   -0.3180   14.5950 C   0  0  0  0  0  0  0  0  0  0  0  0
    1.5330   -1.2400   15.1220 N   0  0  0  0  0  0  0  0  0  0  0  0
    2.2000    0.5380   13.5730 N   0  0  0  0  0  0  0  0  0  0  0  0
    3.1220    1.4190   13.0670 C   0  0  0  0  0  0  0  0  0  0  0  0
    4.4180    1.4430   13.6200 C   0  0  0  0  0  0  0  0  0  0  0  0
    4.6850    0.5840   14.6310 N   0  0  0  0  0  0  0  0  0  0  0  0
    5.8180    0.4060   15.3210 C   0  0  0  0  0  0  0  0  0  0  0  0
    2.7540    2.3280   11.9610 C   0  0  0  0  0  0  0  0  0  0  0  0
    3.6970    2.6180   10.9430 C   0  0  0  0  0  0  0  0  0  0  0  0
    3.3770    3.4790    9.8770 C   0  0  0  0  0  0  0  0  0  0  0  0
    2.1020    4.0320    9.8650 C   0  0  0  0  0  0  0  0  0  0  0  0
    1.4880    4.8960    8.9780 C   0  0  0  0  0  0  0  0  0  0  0  0
    0.2310    5.1170    9.4430 N   0  0  0  0  0  0  0  0  0  0  0  0
    0.0590    4.4280   10.5650 N   0  0  0  0  0  0  0  0  0  0  0  0
   -1.1690    4.4250   11.3410 C   0  0  0  0  0  0  0  0  0  0  0  0
    1.1870    3.7610   10.8390 C   0  0  0  0  0  0  0  0  0  0  0  0
    1.4680    2.9140   11.9080 C   0  0  0  0  0  0  0  0  0  0  0  0
    0.1740   -1.4190   14.7020 C   0  0  0  0  0  0  0  0  0  0  0  0
   -0.4730   -2.6120   15.0290 C   0  0  0  0  0  0  0  0  0  0  0  0
   -1.7960   -2.8290   14.6410 C   0  0  0  0  0  0  0  0  0  0  0  0
   -2.4950   -1.8500   13.9170 C   0  0  0  0  0  0  0  0  0  0  0  0
   -1.8540   -0.6470   13.5850 C   0  0  0  0  0  0  0  0  0  0  0  0
   -0.5210   -0.4390   13.9790 C   0  0  0  0  0  0  0  0  0  0  0  0
   -3.8210   -2.0510   13.5200 O   0  0  0  0  0  0  0  0  0  0  0  0
   -4.2280   -3.1590   12.7280 C   0  0  0  0  0  0  0  0  0  0  0  0
   -2.5600    0.3210   12.8630 O   0  0  0  0  0  0  0  0  0  0  0  0
   -1.9480    1.1530   11.8880 C   0  0  0  0  0  0  0  0  0  0  0  0
    6.2817   -0.9902   16.9777 H   0  0  0  0  0  0  0  0  0  0  0  0
    1.8543   -1.8438   15.8921 H   0  0  0  0  0  0  0  0  0  0  0  0
    5.1853    2.1354   13.2432 H   0  0  0  0  0  0  0  0  0  0  0  0
    6.7664    0.9459   15.1831 H   0  0  0  0  0  0  0  0  0  0  0  0
    4.6969    2.1617   10.9872 H   0  0  0  0  0  0  0  0  0  0  0  0
    4.1064    3.7052    9.0853 H   0  0  0  0  0  0  0  0  0  0  0  0
    1.9331    5.3238    8.0676 H   0  0  0  0  0  0  0  0  0  0  0  0
   -0.9249    4.4256   12.4136 H   0  0  0  0  0  0  0  0  0  0  0  0
   -1.7582    5.3217   11.0985 H   0  0  0  0  0  0  0  0  0  0  0  0
   -1.7538    3.5254   11.0985 H   0  0  0  0  0  0  0  0  0  0  0  0
    0.7161    2.7080   12.6840 H   0  0  0  0  0  0  0  0  0  0  0  0
    0.0637   -3.3865   15.5965 H   0  0  0  0  0  0  0  0  0  0  0  0
   -2.2945   -3.7736   14.9043 H   0  0  0  0  0  0  0  0  0  0  0  0
   -0.0173    0.5032   13.7172 H   0  0  0  0  0  0  0  0  0  0  0  0
   -4.5322   -3.9872   13.3849 H   0  0  0  0  0  0  0  0  0  0  0  0
   -5.0764   -2.8639   12.0931 H   0  0  0  0  0  0  0  0  0  0  0  0
   -3.3903   -3.4833   12.0931 H   0  0  0  0  0  0  0  0  0  0  0  0
   -1.3682    1.9413   12.3905 H   0  0  0  0  0  0  0  0  0  0  0  0
   -1.2774    0.5489   11.2592 H   0  0  0  0  0  0  0  0  0  0  0  0
   -2.7244    1.6132   11.2592 H   0  0  0  0  0  0  0  0  0  0  0  0
  1  2  1  0
  1 10  2  0
  2  3  2  0
  3  4  1  0
  3  9  1  0
  4  5  1  0
  4  6  2  0
  5 21  1  0
  6  7  1  0
  7  8  2  0
  7 11  1  0
  8  9  1  0
  9 10  1  0
 11 12  2  0
 11 20  1  0
 12 13  1  0
 13 14  2  0
 14 19  1  0
 14 15  1  0
 15 16  2  0
 16 17  1  0
 17 19  1  0
 17 18  1  0
 19 20  2  0
 21 22  2  0
 21 26  1  0
 22 23  1  0
 23 24  2  0
 24 25  1  0
 24 27  1  0
 25 26  2  0
 25 29  1  0
 27 28  1  0
 29 30  1  0
  1 31  1  0
  5 32  1  0
  8 33  1  0
 10 34  1  0
 12 35  1  0
 13 36  1  0
 15 37  1  0
 18 38  1  0
 18 39  1  0
 18 40  1  0
 20 41  1  0
 22 42  1  0
 23 43  1  0
 26 44  1  0
 28 45  1  0
 28 46  1  0
 28 47  1  0
 30 48  1  0
 30 49  1  0
 30 50  1  0
M  END
>  <s_m_entry_id>  (26) 
843

>  <MODEL>  (26) 
1

>  <REMARK>  (26) 
 VINA RESULT:   -12.326      0.000      0.000
 INTER + INTRA:         -12.237
 INTER:                 -11.849
 INTRA:                  -0.387
 UNBOUND:                 2.972
  Name = /scratch/kmzp800/tmp5izyjlo0/tmpz57g7qn4.pdb
  7 active torsions:
  status: ('A' for Active; 'I' for Inactive)
    1  A    between atoms: N2_5  and  C4_6
    2  A    between atoms: C7_9  and  O1_10
    3  A    between atoms: O1_10  and  C8_11
    4  A    between atoms: C9_12  and  O2_13
    5  A    between atoms: O2_13  and  C10_14
    6  A    between atoms: C12_17  and  C13_18
    7  A    between atoms: N5_24  and  C18_25
                            x       y       z     vdW  Elec       q    Type
                         _______ _______ _______ _____ _____    ______ ____

>  <TORSDO>  (26) 
F 4

>  <grid_id>  (26) 
syk-prepared

>  <grid_path>  (26) 
syk_vina.pdbqt

>  <grid_filename>  (26) 
syk_vina.pdbqt

>  <docking_score>  (26) 
-12.326

>  <compound_name>  (26) 
CHEMBL3265022

>  <index_string>  (26) 
25:0:0

>  <s_m_Source_Path>  (26) 
/projects/mai/users/kmzp800_harry/pmx_colab/docking_jobs/syk/vina_prep/output

>  <s_m_Source_File>  (26) 
ptp1b_docked_conformers.sdf

>  <i_m_Source_File_Index>  (26) 
667

$$$$
CHEMBL3264995
     RDKit          3D

 61 65  0  0  1  0  0  0  0  0999 V2000
    5.8300   -0.5150   16.3580 C   0  0  0  0  0  0  0  0  0  0  0  0
    4.5510   -0.9560   16.2590 N   0  0  0  0  0  0  0  0  0  0  0  0
    4.0490   -0.2460   15.2350 C   0  0  0  0  0  0  0  0  0  0  0  0
    2.7570   -0.3210   14.7210 C   0  0  0  0  0  0  0  0  0  0  0  0
    1.7970   -1.2240   15.2860 N   0  0  0  0  0  0  0  0  0  0  0  0
    2.4480    0.4920   13.6680 N   0  0  0  0  0  0  0  0  0  0  0  0
    3.3560    1.3600   13.1190 C   0  0  0  0  0  0  0  0  0  0  0  0
    4.6560    1.4140   13.6580 C   0  0  0  0  0  0  0  0  0  0  0  0
    4.9380    0.5980   14.7010 N   0  0  0  0  0  0  0  0  0  0  0  0
    6.0790    0.4540   15.3880 C   0  0  0  0  0  0  0  0  0  0  0  0
    0.4360   -1.4110   14.8670 C   0  0  0  0  0  0  0  0  0  0  0  0
   -0.3000   -2.5490   15.2180 C   0  0  0  0  0  0  0  0  0  0  0  0
   -1.6210   -2.6940   14.7920 C   0  0  0  0  0  0  0  0  0  0  0  0
   -2.2280   -1.7010   14.0060 C   0  0  0  0  0  0  0  0  0  0  0  0
   -1.4960   -0.5580   13.6510 C   0  0  0  0  0  0  0  0  0  0  0  0
   -0.1670   -0.4210   14.0850 C   0  0  0  0  0  0  0  0  0  0  0  0
   -3.5510   -1.8300   13.5700 O   0  0  0  0  0  0  0  0  0  0  0  0
   -4.0430   -3.0060   12.9410 C   0  0  0  0  0  0  0  0  0  0  0  0
   -2.1070    0.4280   12.8680 O   0  0  0  0  0  0  0  0  0  0  0  0
   -1.6100    0.8190   11.5950 C   0  0  0  0  0  0  0  0  0  0  0  0
    2.9640    2.2140   11.9810 C   0  0  0  0  0  0  0  0  0  0  0  0
    3.8550    2.4760   10.9290 C   0  0  0  0  0  0  0  0  0  0  0  0
    3.4700    3.2870    9.8590 C   0  0  0  0  0  0  0  0  0  0  0  0
    2.1890    3.8440    9.8310 C   0  0  0  0  0  0  0  0  0  0  0  0
    1.2850    3.5960   10.8720 C   0  0  0  0  0  0  0  0  0  0  0  0
    1.6800    2.7800   11.9410 C   0  0  0  0  0  0  0  0  0  0  0  0
   -0.0660    4.1810   10.8450 C   0  0  0  0  0  0  0  0  0  0  0  0
   -0.4490    4.8250    9.8300 O   0  0  0  0  0  0  0  0  0  0  0  0
   -0.9380    4.0140   11.9750 N   0  0  0  0  0  0  0  0  0  0  0  0
   -2.2740    4.5150   12.1120 C   0  0  0  0  0  0  0  0  0  0  0  0
   -3.3720    3.8810   11.5120 C   0  0  0  0  0  0  0  0  0  0  0  0
   -4.6600    4.4000   11.6680 C   0  0  0  0  0  0  0  0  0  0  0  0
   -4.8680    5.5610   12.4250 C   0  0  0  0  0  0  0  0  0  0  0  0
   -3.7720    6.1950   13.0230 C   0  0  0  0  0  0  0  0  0  0  0  0
   -2.4840    5.6750   12.8670 C   0  0  0  0  0  0  0  0  0  0  0  0
   -6.2230    6.1120   12.5920 C   0  0  0  0  0  0  0  0  0  0  0  0
   -6.6100    6.5270   13.7160 O   0  0  0  0  0  0  0  0  0  0  0  0
   -7.0880    6.1810   11.5060 O   0  0  0  0  0  0  0  0  0  0  0  0
    6.5637   -0.8705   17.0964 H   0  0  0  0  0  0  0  0  0  0  0  0
    2.1179   -1.8003   16.0771 H   0  0  0  0  0  0  0  0  0  0  0  0
    5.4154    2.0950   13.2462 H   0  0  0  0  0  0  0  0  0  0  0  0
    7.0232    0.9927   15.2201 H   0  0  0  0  0  0  0  0  0  0  0  0
    0.1655   -3.3332   15.8330 H   0  0  0  0  0  0  0  0  0  0  0  0
   -2.1905   -3.5919   15.0737 H   0  0  0  0  0  0  0  0  0  0  0  0
    0.4061    0.4756   13.8064 H   0  0  0  0  0  0  0  0  0  0  0  0
   -4.3470   -3.7327   13.7088 H   0  0  0  0  0  0  0  0  0  0  0  0
   -4.9099   -2.7510   12.3137 H   0  0  0  0  0  0  0  0  0  0  0  0
   -3.2528   -3.4443   12.3137 H   0  0  0  0  0  0  0  0  0  0  0  0
   -0.7518    1.4942   11.7280 H   0  0  0  0  0  0  0  0  0  0  0  0
   -1.2915   -0.0732   11.0359 H   0  0  0  0  0  0  0  0  0  0  0  0
   -2.4021    1.3386   11.0359 H   0  0  0  0  0  0  0  0  0  0  0  0
    4.8644    2.0393   10.9472 H   0  0  0  0  0  0  0  0  0  0  0  0
    4.1751    3.4871    9.0387 H   0  0  0  0  0  0  0  0  0  0  0  0
    1.8884    4.4812    8.9863 H   0  0  0  0  0  0  0  0  0  0  0  0
    0.9737    2.5803   12.7603 H   0  0  0  0  0  0  0  0  0  0  0  0
   -0.5634    3.4776   12.7705 H   0  0  0  0  0  0  0  0  0  0  0  0
   -3.2182    2.9699   10.9152 H   0  0  0  0  0  0  0  0  0  0  0  0
   -5.5147    3.8949   11.1944 H   0  0  0  0  0  0  0  0  0  0  0  0
   -3.9255    7.1070   13.6186 H   0  0  0  0  0  0  0  0  0  0  0  0
   -1.6296    6.1807   13.3407 H   0  0  0  0  0  0  0  0  0  0  0  0
   -7.5227    6.8961   13.8200 H   0  0  0  0  0  0  0  0  0  0  0  0
  1  2  1  0
  1 10  2  0
  2  3  2  0
  3  4  1  0
  3  9  1  0
  4  5  1  0
  4  6  2  0
  5 11  1  0
  6  7  1  0
  7  8  2  0
  7 21  1  0
  8  9  1  0
  9 10  1  0
 11 12  2  0
 11 16  1  0
 12 13  1  0
 13 14  2  0
 14 15  1  0
 14 17  1  0
 15 16  2  0
 15 19  1  0
 17 18  1  0
 19 20  1  0
 21 22  2  0
 21 26  1  0
 22 23  1  0
 23 24  2  0
 24 25  1  0
 25 26  2  0
 25 27  1  0
 27 29  1  0
 27 28  2  0
 29 30  1  0
 30 35  1  0
 30 31  2  0
 31 32  1  0
 32 33  2  0
 33 36  1  0
 33 34  1  0
 34 35  2  0
 36 37  1  0
 36 38  2  0
  1 39  1  0
  5 40  1  0
  8 41  1  0
 10 42  1  0
 12 43  1  0
 13 44  1  0
 16 45  1  0
 18 46  1  0
 18 47  1  0
 18 48  1  0
 20 49  1  0
 20 50  1  0
 20 51  1  0
 22 52  1  0
 23 53  1  0
 24 54  1  0
 26 55  1  0
 29 56  1  0
 31 57  1  0
 32 58  1  0
 34 59  1  0
 35 60  1  0
 37 61  1  0
M  END
>  <s_m_entry_id>  (27) 
880

>  <MODEL>  (27) 
1

>  <REMARK>  (27) 
 VINA RESULT:   -12.357      0.000      0.000
 INTER + INTRA:         -16.034
 INTER:                 -15.128
 INTRA:                  -0.905
 UNBOUND:                 1.380
  Name = /scratch/kmzp800/tmp4zgddko1/tmp39o9i5tx.pdb
  9 active torsions:
  status: ('A' for Active; 'I' for Inactive)
    1  A    between atoms: N2_5  and  C4_6
    2  A    between atoms: C7_9  and  O1_10
    3  A    between atoms: O1_10  and  C8_11
    4  A    between atoms: C9_12  and  O2_13
    5  A    between atoms: O2_13  and  C10_14
    6  A    between atoms: C12_17  and  C13_18
    7  A    between atoms: C17_22  and  C18_23
    8  A    between atoms: N4_25  and  C19_26
    9  A    between atoms: C22_29  and  C23_30
                            x       y       z     vdW  Elec       q    Type
                         _______ _______ _______ _____ _____    ______ ____

>  <TORSDO>  (27) 
F 7

>  <grid_id>  (27) 
syk-prepared

>  <grid_path>  (27) 
syk_vina.pdbqt

>  <grid_filename>  (27) 
syk_vina.pdbqt

>  <docking_score>  (27) 
-12.357

>  <compound_name>  (27) 
CHEMBL3264995

>  <index_string>  (27) 
26:0:0

>  <s_m_Source_Path>  (27) 
/projects/mai/users/kmzp800_harry/pmx_colab/docking_jobs/syk/vina_prep/output

>  <s_m_Source_File>  (27) 
ptp1b_docked_conformers.sdf

>  <i_m_Source_File_Index>  (27) 
704

$$$$
CHEMBL3265001
     RDKit          3D

 63 68  0  0  1  0  0  0  0  0999 V2000
    5.9180   -0.5490   16.5060 C   0  0  0  0  0  0  0  0  0  0  0  0
    4.6350   -0.9670   16.3610 N   0  0  0  0  0  0  0  0  0  0  0  0
    4.1860   -0.2520   15.3150 C   0  0  0  0  0  0  0  0  0  0  0  0
    2.9130   -0.3040   14.7540 C   0  0  0  0  0  0  0  0  0  0  0  0
    1.9210   -1.1910   15.2920 N   0  0  0  0  0  0  0  0  0  0  0  0
    2.6540    0.5100   13.6880 N   0  0  0  0  0  0  0  0  0  0  0  0
    3.6010    1.3590   13.1720 C   0  0  0  0  0  0  0  0  0  0  0  0
    4.8810    1.3910   13.7600 C   0  0  0  0  0  0  0  0  0  0  0  0
    5.1080    0.5730   14.8140 N   0  0  0  0  0  0  0  0  0  0  0  0
    6.2200    0.4120   15.5430 C   0  0  0  0  0  0  0  0  0  0  0  0
    0.5720   -1.3700   14.8400 C   0  0  0  0  0  0  0  0  0  0  0  0
   -0.0560   -2.5940   15.0850 C   0  0  0  0  0  0  0  0  0  0  0  0
   -1.3680   -2.8130   14.6630 C   0  0  0  0  0  0  0  0  0  0  0  0
   -2.0750   -1.8060   13.9870 C   0  0  0  0  0  0  0  0  0  0  0  0
   -1.4540   -0.5740   13.7370 C   0  0  0  0  0  0  0  0  0  0  0  0
   -0.1310   -0.3630   14.1650 C   0  0  0  0  0  0  0  0  0  0  0  0
   -3.3910   -2.0090   13.5570 O   0  0  0  0  0  0  0  0  0  0  0  0
   -4.2850   -2.9000   14.2090 C   0  0  0  0  0  0  0  0  0  0  0  0
   -2.1670    0.4230   13.0620 O   0  0  0  0  0  0  0  0  0  0  0  0
   -1.7470    0.9640   11.8180 C   0  0  0  0  0  0  0  0  0  0  0  0
    3.2770    2.2210   12.0170 C   0  0  0  0  0  0  0  0  0  0  0  0
    4.1760    2.3340   10.9480 C   0  0  0  0  0  0  0  0  0  0  0  0
    3.8760    3.1470    9.8520 C   0  0  0  0  0  0  0  0  0  0  0  0
    2.6730    3.8530    9.8140 C   0  0  0  0  0  0  0  0  0  0  0  0
    1.7600    3.7540   10.8720 C   0  0  0  0  0  0  0  0  0  0  0  0
    2.0690    2.9360   11.9690 C   0  0  0  0  0  0  0  0  0  0  0  0
    0.4890    4.4990   10.8330 C   0  0  0  0  0  0  0  0  0  0  0  0
    0.4240    5.5890   10.2000 O   0  0  0  0  0  0  0  0  0  0  0  0
   -0.6620    3.9800   11.5140 N   0  0  0  0  0  0  0  0  0  0  0  0
   -1.9670    4.5730   11.5760 C   0  0  0  0  0  0  0  0  0  0  0  0
   -2.8520    4.5380   10.4890 C   0  0  0  0  0  0  0  0  0  0  0  0
   -4.1150    5.1290   10.5870 C   0  0  0  0  0  0  0  0  0  0  0  0
   -4.5080    5.7610   11.7730 C   0  0  0  0  0  0  0  0  0  0  0  0
   -3.6240    5.7960   12.8590 C   0  0  0  0  0  0  0  0  0  0  0  0
   -2.3610    5.2050   12.7600 C   0  0  0  0  0  0  0  0  0  0  0  0
   -5.8370    6.3820   11.8770 C   0  0  0  0  0  0  0  0  0  0  0  0
   -6.4940    6.5860   13.0340 N   0  0  0  0  0  0  0  0  0  0  0  0
   -7.6310    7.1590   12.6780 N   0  0  0  0  0  0  0  0  0  0  0  0
   -7.6700    7.3000   11.3620 N   0  0  0  0  0  0  0  0  0  0  0  0
   -6.5580    6.8210   10.8290 N   0  0  0  0  0  0  0  0  0  0  0  0
    6.6175   -0.9153   17.2719 H   0  0  0  0  0  0  0  0  0  0  0  0
    2.2119   -1.7655   16.0959 H   0  0  0  0  0  0  0  0  0  0  0  0
    5.6677    2.0571   13.3761 H   0  0  0  0  0  0  0  0  0  0  0  0
    7.1791    0.9336   15.4086 H   0  0  0  0  0  0  0  0  0  0  0  0
    0.4876   -3.3905   15.6142 H   0  0  0  0  0  0  0  0  0  0  0  0
   -1.8514   -3.7810   14.8613 H   0  0  0  0  0  0  0  0  0  0  0  0
    0.3572    0.6028   13.9678 H   0  0  0  0  0  0  0  0  0  0  0  0
   -4.1786   -2.7940   15.2987 H   0  0  0  0  0  0  0  0  0  0  0  0
   -5.3183   -2.6618   13.9166 H   0  0  0  0  0  0  0  0  0  0  0  0
   -4.0503   -3.9341   13.9166 H   0  0  0  0  0  0  0  0  0  0  0  0
   -1.0814    1.8213   11.9970 H   0  0  0  0  0  0  0  0  0  0  0  0
   -1.2077    0.1941   11.2467 H   0  0  0  0  0  0  0  0  0  0  0  0
   -2.6266    1.2956   11.2467 H   0  0  0  0  0  0  0  0  0  0  0  0
    5.1251    1.7784   10.9719 H   0  0  0  0  0  0  0  0  0  0  0  0
    4.5888    3.2306    9.0184 H   0  0  0  0  0  0  0  0  0  0  0  0
    2.4402    4.4908    8.9485 H   0  0  0  0  0  0  0  0  0  0  0  0
    1.3559    2.8535   12.8025 H   0  0  0  0  0  0  0  0  0  0  0  0
   -0.5384    3.0866   12.0114 H   0  0  0  0  0  0  0  0  0  0  0  0
   -2.5508    4.0428    9.5541 H   0  0  0  0  0  0  0  0  0  0  0  0
   -4.8027    5.0974    9.7291 H   0  0  0  0  0  0  0  0  0  0  0  0
   -3.9250    6.2909   13.7941 H   0  0  0  0  0  0  0  0  0  0  0  0
   -1.6733    5.2371   13.6179 H   0  0  0  0  0  0  0  0  0  0  0  0
   -6.3009    6.7908    9.8321 H   0  0  0  0  0  0  0  0  0  0  0  0
  1  2  1  0
  1 10  2  0
  2  3  2  0
  3  4  1  0
  3  9  1  0
  4  5  1  0
  4  6  2  0
  5 11  1  0
  6  7  1  0
  7  8  2  0
  7 21  1  0
  8  9  1  0
  9 10  1  0
 11 12  2  0
 11 16  1  0
 12 13  1  0
 13 14  2  0
 14 15  1  0
 14 17  1  0
 15 16  2  0
 15 19  1  0
 17 18  1  0
 19 20  1  0
 21 22  2  0
 21 26  1  0
 22 23  1  0
 23 24  2  0
 24 25  1  0
 25 26  2  0
 25 27  1  0
 27 29  1  0
 27 28  2  0
 29 30  1  0
 30 35  1  0
 30 31  2  0
 31 32  1  0
 32 33  2  0
 33 36  1  0
 33 34  1  0
 34 35  2  0
 36 37  2  0
 36 40  1  0
 37 38  1  0
 38 39  2  0
 39 40  1  0
  1 41  1  0
  5 42  1  0
  8 43  1  0
 10 44  1  0
 12 45  1  0
 13 46  1  0
 16 47  1  0
 18 48  1  0
 18 49  1  0
 18 50  1  0
 20 51  1  0
 20 52  1  0
 20 53  1  0
 22 54  1  0
 23 55  1  0
 24 56  1  0
 26 57  1  0
 29 58  1  0
 31 59  1  0
 32 60  1  0
 34 61  1  0
 35 62  1  0
 40 63  1  0
M  END
>  <s_m_entry_id>  (28) 
884

>  <MODEL>  (28) 
1

>  <REMARK>  (28) 
 VINA RESULT:   -11.575      0.000      0.000
 INTER + INTRA:         -15.845
 INTER:                 -14.909
 INTRA:                  -0.936
 UNBOUND:                 0.467
  Name = /scratch/kmzp800/tmppg54ekre/tmpio01je0b.pdb
  9 active torsions:
  status: ('A' for Active; 'I' for Inactive)
    1  A    between atoms: N2_5  and  C4_6
    2  A    between atoms: C7_9  and  O1_10
    3  A    between atoms: O1_10  and  C8_11
    4  A    between atoms: C9_12  and  O2_13
    5  A    between atoms: O2_13  and  C10_14
    6  A    between atoms: C12_17  and  C13_18
    7  A    between atoms: C17_22  and  C18_23
    8  A    between atoms: N4_25  and  C19_26
    9  A    between atoms: C22_29  and  C23_30
                            x       y       z     vdW  Elec       q    Type
                         _______ _______ _______ _____ _____    ______ ____

>  <TORSDO>  (28) 
F 7

>  <grid_id>  (28) 
syk-prepared

>  <grid_path>  (28) 
syk_vina.pdbqt

>  <grid_filename>  (28) 
syk_vina.pdbqt

>  <docking_score>  (28) 
-11.575

>  <compound_name>  (28) 
CHEMBL3265001

>  <index_string>  (28) 
27:0:0

>  <s_m_Source_Path>  (28) 
/projects/mai/users/kmzp800_harry/pmx_colab/docking_jobs/syk/vina_prep/output

>  <s_m_Source_File>  (28) 
ptp1b_docked_conformers.sdf

>  <i_m_Source_File_Index>  (28) 
708

$$$$
CHEMBL3264999
     RDKit          3D

 62 66  0  0  1  0  0  0  0  0999 V2000
    5.8440   -0.5100   16.3490 C   0  0  0  0  0  0  0  0  0  0  0  0
    4.5650   -0.9560   16.2480 N   0  0  0  0  0  0  0  0  0  0  0  0
    4.0600   -0.2380   15.2310 C   0  0  0  0  0  0  0  0  0  0  0  0
    2.7670   -0.3130   14.7190 C   0  0  0  0  0  0  0  0  0  0  0  0
    1.8110   -1.2260   15.2780 N   0  0  0  0  0  0  0  0  0  0  0  0
    2.4520    0.5090   13.6760 N   0  0  0  0  0  0  0  0  0  0  0  0
    3.3560    1.3840   13.1330 C   0  0  0  0  0  0  0  0  0  0  0  0
    4.6570    1.4400   13.6710 C   0  0  0  0  0  0  0  0  0  0  0  0
    4.9430    0.6140   14.7050 N   0  0  0  0  0  0  0  0  0  0  0  0
    6.0850    0.4690   15.3890 C   0  0  0  0  0  0  0  0  0  0  0  0
    0.4520   -1.4150   14.8590 C   0  0  0  0  0  0  0  0  0  0  0  0
   -0.2910   -2.5450   15.2240 C   0  0  0  0  0  0  0  0  0  0  0  0
   -1.6110   -2.6930   14.7950 C   0  0  0  0  0  0  0  0  0  0  0  0
   -2.2120   -1.7100   13.9930 C   0  0  0  0  0  0  0  0  0  0  0  0
   -1.4750   -0.5740   13.6220 C   0  0  0  0  0  0  0  0  0  0  0  0
   -0.1460   -0.4370   14.0580 C   0  0  0  0  0  0  0  0  0  0  0  0
   -3.5330   -1.8400   13.5540 O   0  0  0  0  0  0  0  0  0  0  0  0
   -4.0350   -3.0350   12.9690 C   0  0  0  0  0  0  0  0  0  0  0  0
   -2.0780    0.4010   12.8210 O   0  0  0  0  0  0  0  0  0  0  0  0
   -1.5310    0.8240   11.5810 C   0  0  0  0  0  0  0  0  0  0  0  0
    2.9570    2.2500   12.0040 C   0  0  0  0  0  0  0  0  0  0  0  0
    3.8590    2.5590   10.9740 C   0  0  0  0  0  0  0  0  0  0  0  0
    3.4680    3.3780    9.9130 C   0  0  0  0  0  0  0  0  0  0  0  0
    2.1710    3.8960    9.8710 C   0  0  0  0  0  0  0  0  0  0  0  0
    1.2570    3.5990   10.8900 C   0  0  0  0  0  0  0  0  0  0  0  0
    1.6580    2.7760   11.9520 C   0  0  0  0  0  0  0  0  0  0  0  0
   -0.1120    4.1450   10.8490 C   0  0  0  0  0  0  0  0  0  0  0  0
   -0.5360    4.6880    9.7930 O   0  0  0  0  0  0  0  0  0  0  0  0
   -0.9500    4.0530   12.0120 N   0  0  0  0  0  0  0  0  0  0  0  0
   -2.2960    4.5290   12.1400 C   0  0  0  0  0  0  0  0  0  0  0  0
   -3.3740    3.8910   11.5110 C   0  0  0  0  0  0  0  0  0  0  0  0
   -4.6730    4.3840   11.6600 C   0  0  0  0  0  0  0  0  0  0  0  0
   -4.9130    5.5240   12.4410 C   0  0  0  0  0  0  0  0  0  0  0  0
   -3.8340    6.1610   13.0690 C   0  0  0  0  0  0  0  0  0  0  0  0
   -2.5360    5.6660   12.9190 C   0  0  0  0  0  0  0  0  0  0  0  0
   -6.2810    6.0460   12.5990 C   0  0  0  0  0  0  0  0  0  0  0  0
   -6.6240    6.6210   13.6670 O   0  0  0  0  0  0  0  0  0  0  0  0
   -7.2340    5.9030   11.5490 N   0  0  0  0  0  0  0  0  0  0  0  0
    6.5813   -0.8696   17.0819 H   0  0  0  0  0  0  0  0  0  0  0  0
    2.1352   -1.8076   16.0638 H   0  0  0  0  0  0  0  0  0  0  0  0
    5.4125    2.1293   13.2659 H   0  0  0  0  0  0  0  0  0  0  0  0
    7.0260    1.0146   15.2250 H   0  0  0  0  0  0  0  0  0  0  0  0
    0.1690   -3.3212   15.8532 H   0  0  0  0  0  0  0  0  0  0  0  0
   -2.1839   -3.5854   15.0872 H   0  0  0  0  0  0  0  0  0  0  0  0
    0.4319    0.4519   13.7651 H   0  0  0  0  0  0  0  0  0  0  0  0
   -4.3297   -3.7365   13.7634 H   0  0  0  0  0  0  0  0  0  0  0  0
   -4.9099   -2.7986   12.3455 H   0  0  0  0  0  0  0  0  0  0  0  0
   -3.2538   -3.4943   12.3455 H   0  0  0  0  0  0  0  0  0  0  0  0
   -0.6732    1.4873   11.7659 H   0  0  0  0  0  0  0  0  0  0  0  0
   -1.1986   -0.0543   11.0082 H   0  0  0  0  0  0  0  0  0  0  0  0
   -2.2974    1.3667   11.0082 H   0  0  0  0  0  0  0  0  0  0  0  0
    4.8810    2.1531   11.0029 H   0  0  0  0  0  0  0  0  0  0  0  0
    4.1812    3.6155    9.1099 H   0  0  0  0  0  0  0  0  0  0  0  0
    1.8661    4.5404    9.0333 H   0  0  0  0  0  0  0  0  0  0  0  0
    0.9443    2.5398   12.7550 H   0  0  0  0  0  0  0  0  0  0  0  0
   -0.5411    3.5975   12.8404 H   0  0  0  0  0  0  0  0  0  0  0  0
   -3.1963    2.9964   10.8961 H   0  0  0  0  0  0  0  0  0  0  0  0
   -5.5117    3.8753   11.1622 H   0  0  0  0  0  0  0  0  0  0  0  0
   -4.0101    7.0561   13.6837 H   0  0  0  0  0  0  0  0  0  0  0  0
   -1.6969    6.1739   13.4169 H   0  0  0  0  0  0  0  0  0  0  0  0
   -8.1889    6.2706   11.6666 H   0  0  0  0  0  0  0  0  0  0  0  0
   -6.9678    5.4321   10.6725 H   0  0  0  0  0  0  0  0  0  0  0  0
  1  2  1  0
  1 10  2  0
  2  3  2  0
  3  4  1  0
  3  9  1  0
  4  5  1  0
  4  6  2  0
  5 11  1  0
  6  7  1  0
  7  8  2  0
  7 21  1  0
  8  9  1  0
  9 10  1  0
 11 12  2  0
 11 16  1  0
 12 13  1  0
 13 14  2  0
 14 15  1  0
 14 17  1  0
 15 16  2  0
 15 19  1  0
 17 18  1  0
 19 20  1  0
 21 22  2  0
 21 26  1  0
 22 23  1  0
 23 24  2  0
 24 25  1  0
 25 26  2  0
 25 27  1  0
 27 29  1  0
 27 28  2  0
 29 30  1  0
 30 35  1  0
 30 31  2  0
 31 32  1  0
 32 33  2  0
 33 36  1  0
 33 34  1  0
 34 35  2  0
 36 37  2  0
 36 38  1  0
  1 39  1  0
  5 40  1  0
  8 41  1  0
 10 42  1  0
 12 43  1  0
 13 44  1  0
 16 45  1  0
 18 46  1  0
 18 47  1  0
 18 48  1  0
 20 49  1  0
 20 50  1  0
 20 51  1  0
 22 52  1  0
 23 53  1  0
 24 54  1  0
 26 55  1  0
 29 56  1  0
 31 57  1  0
 32 58  1  0
 34 59  1  0
 35 60  1  0
 38 61  1  0
 38 62  1  0
M  END
>  <s_m_entry_id>  (29) 
888

>  <MODEL>  (29) 
1

>  <REMARK>  (29) 
 VINA RESULT:   -10.873      0.000      0.000
 INTER + INTRA:         -16.097
 INTER:                 -15.204
 INTRA:                  -0.893
 UNBOUND:                -0.775
  Name = /scratch/kmzp800/tmpx2ei4icz/tmpy2hok41y.pdb
  9 active torsions:
  status: ('A' for Active; 'I' for Inactive)
    1  A    between atoms: N2_5  and  C4_6
    2  A    between atoms: C7_9  and  O1_10
    3  A    between atoms: O1_10  and  C8_11
    4  A    between atoms: C9_12  and  O2_13
    5  A    between atoms: O2_13  and  C10_14
    6  A    between atoms: C12_17  and  C13_18
    7  A    between atoms: C17_22  and  C18_23
    8  A    between atoms: N4_25  and  C19_26
    9  A    between atoms: C22_29  and  C23_30
                            x       y       z     vdW  Elec       q    Type
                         _______ _______ _______ _____ _____    ______ ____

>  <TORSDO>  (29) 
F 7

>  <grid_id>  (29) 
syk-prepared

>  <grid_path>  (29) 
syk_vina.pdbqt

>  <grid_filename>  (29) 
syk_vina.pdbqt

>  <docking_score>  (29) 
-10.873

>  <compound_name>  (29) 
CHEMBL3264999

>  <index_string>  (29) 
28:0:0

>  <s_m_Source_Path>  (29) 
/projects/mai/users/kmzp800_harry/pmx_colab/docking_jobs/syk/vina_prep/output

>  <s_m_Source_File>  (29) 
ptp1b_docked_conformers.sdf

>  <i_m_Source_File_Index>  (29) 
712

$$$$
CHEMBL3265036
     RDKit          3D

 55 60  0  0  1  0  0  0  0  0999 V2000
    5.7720   -0.5910   16.2880 C   0  0  0  0  0  0  0  0  0  0  0  0
    4.4990   -1.0610   16.2850 N   0  0  0  0  0  0  0  0  0  0  0  0
    3.9080   -0.3650   15.2990 C   0  0  0  0  0  0  0  0  0  0  0  0
    2.5840   -0.4700   14.8810 C   0  0  0  0  0  0  0  0  0  0  0  0
    1.6900   -1.3950   15.5180 N   0  0  0  0  0  0  0  0  0  0  0  0
    2.1780    0.3320   13.8540 N   0  0  0  0  0  0  0  0  0  0  0  0
    3.0250    1.2190   13.2390 C   0  0  0  0  0  0  0  0  0  0  0  0
    4.3590    1.3050   13.6810 C   0  0  0  0  0  0  0  0  0  0  0  0
    4.7340    0.4970   14.7010 N   0  0  0  0  0  0  0  0  0  0  0  0
    5.9260    0.3820   15.3030 C   0  0  0  0  0  0  0  0  0  0  0  0
    2.5330    2.0630   12.1310 C   0  0  0  0  0  0  0  0  0  0  0  0
    3.4330    2.5920   11.1680 C   0  0  0  0  0  0  0  0  0  0  0  0
    2.9730    3.3970   10.1100 C   0  0  0  0  0  0  0  0  0  0  0  0
    1.6080    3.6500   10.0500 C   0  0  0  0  0  0  0  0  0  0  0  0
    0.8550    4.3820    9.1620 C   0  0  0  0  0  0  0  0  0  0  0  0
   -0.4340    4.2920    9.5790 N   0  0  0  0  0  0  0  0  0  0  0  0
   -0.5110    3.5430   10.6750 N   0  0  0  0  0  0  0  0  0  0  0  0
    0.7350    3.1480   10.9660 C   0  0  0  0  0  0  0  0  0  0  0  0
    1.1530    2.3490   12.0260 C   0  0  0  0  0  0  0  0  0  0  0  0
    0.3070   -1.6130   15.2060 C   0  0  0  0  0  0  0  0  0  0  0  0
   -0.4400   -0.7000   14.4500 C   0  0  0  0  0  0  0  0  0  0  0  0
   -1.7860   -0.9480   14.1670 C   0  0  0  0  0  0  0  0  0  0  0  0
   -2.4110   -2.1140   14.6370 C   0  0  0  0  0  0  0  0  0  0  0  0
   -1.6570   -3.0250   15.3960 C   0  0  0  0  0  0  0  0  0  0  0  0
   -0.3120   -2.7760   15.6770 C   0  0  0  0  0  0  0  0  0  0  0  0
   -3.7990   -2.3730   14.3440 N   0  0  0  0  0  0  0  0  0  0  0  0
   -4.8020   -2.3160   15.4120 C   0  0  0  0  0  0  0  0  0  0  0  0
   -5.8100   -3.4620   15.3130 C   0  0  0  0  0  0  0  0  0  0  0  0
   -5.1640   -4.6580   14.9720 O   0  0  0  0  0  0  0  0  0  0  0  0
   -5.3990   -4.8180   13.6000 C   0  0  0  0  0  0  0  0  0  0  0  0
   -4.2670   -4.1980   12.7820 C   0  0  0  0  0  0  0  0  0  0  0  0
   -4.2210   -2.6860   12.9790 C   0  0  0  0  0  0  0  0  0  0  0  0
    6.5668   -0.9291   16.9692 H   0  0  0  0  0  0  0  0  0  0  0  0
    2.0840   -1.9634   16.2813 H   0  0  0  0  0  0  0  0  0  0  0  0
    5.0703    2.0027   13.2150 H   0  0  0  0  0  0  0  0  0  0  0  0
    6.8420    0.9433   15.0667 H   0  0  0  0  0  0  0  0  0  0  0  0
    4.5069    2.3687   11.2508 H   0  0  0  0  0  0  0  0  0  0  0  0
    3.6653    3.8092    9.3611 H   0  0  0  0  0  0  0  0  0  0  0  0
    1.2249    4.9330    8.2848 H   0  0  0  0  0  0  0  0  0  0  0  0
   -1.3661    3.3109   11.2001 H   0  0  0  0  0  0  0  0  0  0  0  0
    0.4333    1.9533   12.7577 H   0  0  0  0  0  0  0  0  0  0  0  0
    0.0363    0.2185   14.0766 H   0  0  0  0  0  0  0  0  0  0  0  0
   -2.3605   -0.2236   13.5710 H   0  0  0  0  0  0  0  0  0  0  0  0
   -2.1310   -3.9434   15.7726 H   0  0  0  0  0  0  0  0  0  0  0  0
    0.2647   -3.4990   16.2726 H   0  0  0  0  0  0  0  0  0  0  0  0
   -4.2900   -2.3763   16.3837 H   0  0  0  0  0  0  0  0  0  0  0  0
   -5.3528   -1.3693   15.3107 H   0  0  0  0  0  0  0  0  0  0  0  0
   -6.3126   -3.5864   16.2835 H   0  0  0  0  0  0  0  0  0  0  0  0
   -6.5460   -3.2209   14.5319 H   0  0  0  0  0  0  0  0  0  0  0  0
   -5.4663   -5.8911   13.3680 H   0  0  0  0  0  0  0  0  0  0  0  0
   -6.3406   -4.3117   13.3412 H   0  0  0  0  0  0  0  0  0  0  0  0
   -3.3093   -4.6329   13.1041 H   0  0  0  0  0  0  0  0  0  0  0  0
   -4.4449   -4.4094   11.7173 H   0  0  0  0  0  0  0  0  0  0  0  0
   -5.2214   -2.2647   12.8012 H   0  0  0  0  0  0  0  0  0  0  0  0
   -3.5019   -2.2507   12.2695 H   0  0  0  0  0  0  0  0  0  0  0  0
  1  2  1  0
  1 10  2  0
  2  3  2  0
  3  4  1  0
  3  9  1  0
  4  5  1  0
  4  6  2  0
  5 20  1  0
  6  7  1  0
  7  8  2  0
  7 11  1  0
  8  9  1  0
  9 10  1  0
 11 12  2  0
 11 19  1  0
 12 13  1  0
 13 14  2  0
 14 18  1  0
 14 15  1  0
 15 16  2  0
 16 17  1  0
 17 18  1  0
 18 19  2  0
 20 25  1  0
 20 21  2  0
 21 22  1  0
 22 23  2  0
 23 24  1  0
 23 26  1  0
 24 25  2  0
 26 27  1  0
 26 32  1  0
 27 28  1  0
 28 29  1  0
 29 30  1  0
 30 31  1  0
 31 32  1  0
  1 33  1  0
  5 34  1  0
  8 35  1  0
 10 36  1  0
 12 37  1  0
 13 38  1  0
 15 39  1  0
 17 40  1  0
 19 41  1  0
 21 42  1  0
 22 43  1  0
 24 44  1  0
 25 45  1  0
 27 46  1  0
 27 47  1  0
 28 48  1  0
 28 49  1  0
 30 50  1  0
 30 51  1  0
 31 52  1  0
 31 53  1  0
 32 54  1  0
 32 55  1  0
M  END
>  <s_m_entry_id>  (30) 
892

>  <MODEL>  (30) 
1

>  <REMARK>  (30) 
 VINA RESULT:    -9.959      0.000      0.000
 INTER + INTRA:         -11.951
 INTER:                 -11.490
 INTRA:                  -0.461
 UNBOUND:                -0.245
  Name = /scratch/kmzp800/tmpugzgopcu/tmpu77skkmr.pdb
  3 active torsions:
  status: ('A' for Active; 'I' for Inactive)
    1  A    between atoms: N2_5  and  C4_6
    2  A    between atoms: C7_9  and  N3_10
    3  A    between atoms: C15_20  and  C16_21
                            x       y       z     vdW  Elec       q    Type
                         _______ _______ _______ _____ _____    ______ ____

>  <TORSDO>  (30) 
F 3

>  <grid_id>  (30) 
syk-prepared

>  <grid_path>  (30) 
syk_vina.pdbqt

>  <grid_filename>  (30) 
syk_vina.pdbqt

>  <docking_score>  (30) 
-9.959

>  <compound_name>  (30) 
CHEMBL3265036

>  <index_string>  (30) 
29:0:0

>  <s_m_Source_Path>  (30) 
/projects/mai/users/kmzp800_harry/pmx_colab/docking_jobs/syk/vina_prep/output

>  <s_m_Source_File>  (30) 
ptp1b_docked_conformers.sdf

>  <i_m_Source_File_Index>  (30) 
716

$$$$
CHEMBL3265017
     RDKit          3D

 47 51  0  0  1  0  0  0  0  0999 V2000
    5.6110   -0.5790   16.3310 C   0  0  0  0  0  0  0  0  0  0  0  0
    4.3400   -1.0430   16.2270 N   0  0  0  0  0  0  0  0  0  0  0  0
    3.8230   -0.3210   15.2170 C   0  0  0  0  0  0  0  0  0  0  0  0
    2.5310   -0.4090   14.7050 C   0  0  0  0  0  0  0  0  0  0  0  0
    1.5910   -1.3430   15.2550 N   0  0  0  0  0  0  0  0  0  0  0  0
    2.2020    0.4210   13.6700 N   0  0  0  0  0  0  0  0  0  0  0  0
    3.0940    1.3160   13.1390 C   0  0  0  0  0  0  0  0  0  0  0  0
    4.3930    1.3850   13.6760 C   0  0  0  0  0  0  0  0  0  0  0  0
    4.6930    0.5520   14.7010 N   0  0  0  0  0  0  0  0  0  0  0  0
    5.8380    0.4160   15.3820 C   0  0  0  0  0  0  0  0  0  0  0  0
    2.6850    2.1900   12.0200 C   0  0  0  0  0  0  0  0  0  0  0  0
    3.6420    2.5930   11.0530 C   0  0  0  0  0  0  0  0  0  0  0  0
    3.2830    3.4250    9.9770 C   0  0  0  0  0  0  0  0  0  0  0  0
    1.9560    3.8320    9.9040 C   0  0  0  0  0  0  0  0  0  0  0  0
    1.2970    4.6280    8.9970 C   0  0  0  0  0  0  0  0  0  0  0  0
    0.0040    4.6950    9.4080 N   0  0  0  0  0  0  0  0  0  0  0  0
   -0.1640    3.9820   10.5180 N   0  0  0  0  0  0  0  0  0  0  0  0
    1.0280    3.4530   10.8240 C   0  0  0  0  0  0  0  0  0  0  0  0
    1.3460    2.6310   11.9010 C   0  0  0  0  0  0  0  0  0  0  0  0
    0.2340   -1.5520   14.8400 C   0  0  0  0  0  0  0  0  0  0  0  0
   -0.4330   -2.7660   15.0550 C   0  0  0  0  0  0  0  0  0  0  0  0
   -1.7540   -2.9300   14.6360 C   0  0  0  0  0  0  0  0  0  0  0  0
   -2.4300   -1.8800   13.9930 C   0  0  0  0  0  0  0  0  0  0  0  0
   -1.7700   -0.6630   13.7740 C   0  0  0  0  0  0  0  0  0  0  0  0
   -0.4390   -0.5090   14.1990 C   0  0  0  0  0  0  0  0  0  0  0  0
   -3.7550   -2.0260   13.5650 O   0  0  0  0  0  0  0  0  0  0  0  0
   -4.2040   -3.1520   12.8230 C   0  0  0  0  0  0  0  0  0  0  0  0
   -2.4500    0.3790   13.1320 O   0  0  0  0  0  0  0  0  0  0  0  0
   -1.9230    1.0600   12.0010 C   0  0  0  0  0  0  0  0  0  0  0  0
    6.3543   -0.9364   17.0588 H   0  0  0  0  0  0  0  0  0  0  0  0
    1.9276   -1.9276   16.0333 H   0  0  0  0  0  0  0  0  0  0  0  0
    5.1377    2.0899   13.2777 H   0  0  0  0  0  0  0  0  0  0  0  0
    6.7708    0.9772   15.2240 H   0  0  0  0  0  0  0  0  0  0  0  0
    4.6826    2.2489   11.1463 H   0  0  0  0  0  0  0  0  0  0  0  0
    4.0214    3.7402    9.2250 H   0  0  0  0  0  0  0  0  0  0  0  0
    1.7318    5.1152    8.1118 H   0  0  0  0  0  0  0  0  0  0  0  0
   -1.0423    3.8599   11.0420 H   0  0  0  0  0  0  0  0  0  0  0  0
    0.5822    2.3342   12.6348 H   0  0  0  0  0  0  0  0  0  0  0  0
    0.0881   -3.5945   15.5571 H   0  0  0  0  0  0  0  0  0  0  0  0
   -2.2685   -3.8865   14.8102 H   0  0  0  0  0  0  0  0  0  0  0  0
    0.0795    0.4453   14.0246 H   0  0  0  0  0  0  0  0  0  0  0  0
   -4.5204   -3.9454   13.5161 H   0  0  0  0  0  0  0  0  0  0  0  0
   -5.0538   -2.8584   12.1893 H   0  0  0  0  0  0  0  0  0  0  0  0
   -3.3853   -3.5237   12.1893 H   0  0  0  0  0  0  0  0  0  0  0  0
   -1.2821    1.8882   12.3375 H   0  0  0  0  0  0  0  0  0  0  0  0
   -1.3293    0.3597   11.3951 H   0  0  0  0  0  0  0  0  0  0  0  0
   -2.7499    1.4590   11.3951 H   0  0  0  0  0  0  0  0  0  0  0  0
  1  2  1  0
  1 10  2  0
  2  3  2  0
  3  4  1  0
  3  9  1  0
  4  5  1  0
  4  6  2  0
  5 20  1  0
  6  7  1  0
  7  8  2  0
  7 11  1  0
  8  9  1  0
  9 10  1  0
 11 12  2  0
 11 19  1  0
 12 13  1  0
 13 14  2  0
 14 18  1  0
 14 15  1  0
 15 16  2  0
 16 17  1  0
 17 18  1  0
 18 19  2  0
 20 21  2  0
 20 25  1  0
 21 22  1  0
 22 23  2  0
 23 24  1  0
 23 26  1  0
 24 25  2  0
 24 28  1  0
 26 27  1  0
 28 29  1  0
  1 30  1  0
  5 31  1  0
  8 32  1  0
 10 33  1  0
 12 34  1  0
 13 35  1  0
 15 36  1  0
 17 37  1  0
 19 38  1  0
 21 39  1  0
 22 40  1  0
 25 41  1  0
 27 42  1  0
 27 43  1  0
 27 44  1  0
 29 45  1  0
 29 46  1  0
 29 47  1  0
M  END
>  <s_m_entry_id>  (31) 
907

>  <MODEL>  (31) 
1

>  <REMARK>  (31) 
 VINA RESULT:    -9.332      0.000      0.000
 INTER + INTRA:         -12.075
 INTER:                 -11.688
 INTRA:                  -0.388
 UNBOUND:                -0.561
  Name = /scratch/kmzp800/tmp54yk9psx/tmprv9p0wzf.pdb
  6 active torsions:
  status: ('A' for Active; 'I' for Inactive)
    1  A    between atoms: N2_5  and  C4_6
    2  A    between atoms: C7_9  and  O1_10
    3  A    between atoms: O1_10  and  C8_11
    4  A    between atoms: C9_12  and  O2_13
    5  A    between atoms: O2_13  and  C10_14
    6  A    between atoms: C12_17  and  C13_18
                            x       y       z     vdW  Elec       q    Type
                         _______ _______ _______ _____ _____    ______ ____

>  <TORSDO>  (31) 
F 4

>  <grid_id>  (31) 
syk-prepared

>  <grid_path>  (31) 
syk_vina.pdbqt

>  <grid_filename>  (31) 
syk_vina.pdbqt

>  <docking_score>  (31) 
-9.332

>  <compound_name>  (31) 
CHEMBL3265017

>  <index_string>  (31) 
30:0:0

>  <s_m_Source_Path>  (31) 
/projects/mai/users/kmzp800_harry/pmx_colab/docking_jobs/syk/vina_prep/output

>  <s_m_Source_File>  (31) 
ptp1b_docked_conformers.sdf

>  <i_m_Source_File_Index>  (31) 
731

$$$$
CHEMBL3265009
     RDKit          3D

 51 54  0  0  1  0  0  0  0  0999 V2000
    5.6140   -0.5930   16.2990 C   0  0  0  0  0  0  0  0  0  0  0  0
    4.3470   -1.0720   16.2250 N   0  0  0  0  0  0  0  0  0  0  0  0
    3.7910   -0.3450   15.2410 C   0  0  0  0  0  0  0  0  0  0  0  0
    2.4860   -0.4430   14.7650 C   0  0  0  0  0  0  0  0  0  0  0  0
    1.5750   -1.3970   15.3290 N   0  0  0  0  0  0  0  0  0  0  0  0
    2.1170    0.3940   13.7520 N   0  0  0  0  0  0  0  0  0  0  0  0
    2.9810    1.3090   13.2060 C   0  0  0  0  0  0  0  0  0  0  0  0
    4.2950    1.3880   13.7070 C   0  0  0  0  0  0  0  0  0  0  0  0
    4.6350    0.5450   14.7120 N   0  0  0  0  0  0  0  0  0  0  0  0
    5.8000    0.4160   15.3570 C   0  0  0  0  0  0  0  0  0  0  0  0
    2.5280    2.1920   12.1120 C   0  0  0  0  0  0  0  0  0  0  0  0
    3.4450    2.6730   11.1710 C   0  0  0  0  0  0  0  0  0  0  0  0
    3.0240    3.5070   10.1350 C   0  0  0  0  0  0  0  0  0  0  0  0
    1.6810    3.8750   10.0200 C   0  0  0  0  0  0  0  0  0  0  0  0
    1.3130    4.7690    8.8830 C   0  0  0  0  0  0  0  0  0  0  0  0
    0.7340    3.3990   10.9620 C   0  0  0  0  0  0  0  0  0  0  0  0
    1.1800    2.5610   11.9960 C   0  0  0  0  0  0  0  0  0  0  0  0
   -0.7110    3.7390   10.9170 C   0  0  0  0  0  0  0  0  0  0  0  0
   -1.4350    3.3900    9.9480 O   0  0  0  0  0  0  0  0  0  0  0  0
   -1.3050    4.4750   11.9840 N   0  0  0  0  0  0  0  0  0  0  0  0
    0.2100   -1.6190   14.9500 C   0  0  0  0  0  0  0  0  0  0  0  0
   -0.4280   -2.8490   15.1520 C   0  0  0  0  0  0  0  0  0  0  0  0
   -1.7590   -3.0250   14.7700 C   0  0  0  0  0  0  0  0  0  0  0  0
   -2.4740   -1.9730   14.1780 C   0  0  0  0  0  0  0  0  0  0  0  0
   -1.8420   -0.7370   13.9710 C   0  0  0  0  0  0  0  0  0  0  0  0
   -0.5020   -0.5700   14.3610 C   0  0  0  0  0  0  0  0  0  0  0  0
   -3.8090   -2.1310   13.7870 O   0  0  0  0  0  0  0  0  0  0  0  0
   -4.2300   -3.1440   12.8840 C   0  0  0  0  0  0  0  0  0  0  0  0
   -2.5600    0.3090   13.3810 O   0  0  0  0  0  0  0  0  0  0  0  0
   -2.1800    0.9030   12.1470 C   0  0  0  0  0  0  0  0  0  0  0  0
    6.3825   -0.9495   17.0007 H   0  0  0  0  0  0  0  0  0  0  0  0
    1.9416   -1.9871   16.0895 H   0  0  0  0  0  0  0  0  0  0  0  0
    5.0189    2.1078   13.2974 H   0  0  0  0  0  0  0  0  0  0  0  0
    6.7204    0.9915   15.1790 H   0  0  0  0  0  0  0  0  0  0  0  0
    4.5055    2.3915   11.2487 H   0  0  0  0  0  0  0  0  0  0  0  0
    3.7557    3.8781    9.4023 H   0  0  0  0  0  0  0  0  0  0  0  0
    0.9218    5.7192    9.2755 H   0  0  0  0  0  0  0  0  0  0  0  0
    2.2035    4.9652    8.2678 H   0  0  0  0  0  0  0  0  0  0  0  0
    0.5424    4.2815    8.2678 H   0  0  0  0  0  0  0  0  0  0  0  0
    0.4550    2.1848   12.7328 H   0  0  0  0  0  0  0  0  0  0  0  0
   -2.3072    4.7103   11.9519 H   0  0  0  0  0  0  0  0  0  0  0  0
   -0.7319    4.7713   12.7869 H   0  0  0  0  0  0  0  0  0  0  0  0
    0.1229   -3.6813   15.6144 H   0  0  0  0  0  0  0  0  0  0  0  0
   -2.2507   -3.9952   14.9343 H   0  0  0  0  0  0  0  0  0  0  0  0
   -0.0069    0.3991   14.2006 H   0  0  0  0  0  0  0  0  0  0  0  0
   -4.5916   -4.0141   13.4517 H   0  0  0  0  0  0  0  0  0  0  0  0
   -5.0415   -2.7564   12.2506 H   0  0  0  0  0  0  0  0  0  0  0  0
   -3.3828   -3.4458   12.2506 H   0  0  0  0  0  0  0  0  0  0  0  0
   -1.5967    1.8148   12.3432 H   0  0  0  0  0  0  0  0  0  0  0  0
   -1.5680    0.1930   11.5714 H   0  0  0  0  0  0  0  0  0  0  0  0
   -3.0812    1.1610   11.5714 H   0  0  0  0  0  0  0  0  0  0  0  0
  1  2  1  0
  1 10  2  0
  2  3  2  0
  3  4  1  0
  3  9  1  0
  4  5  1  0
  4  6  2  0
  5 21  1  0
  6  7  1  0
  7  8  2  0
  7 11  1  0
  8  9  1  0
  9 10  1  0
 11 12  2  0
 11 17  1  0
 12 13  1  0
 13 14  2  0
 14 16  1  0
 14 15  1  0
 16 17  2  0
 16 18  1  0
 18 20  1  0
 18 19  2  0
 21 22  2  0
 21 26  1  0
 22 23  1  0
 23 24  2  0
 24 25  1  0
 24 27  1  0
 25 26  2  0
 25 29  1  0
 27 28  1  0
 29 30  1  0
  1 31  1  0
  5 32  1  0
  8 33  1  0
 10 34  1  0
 12 35  1  0
 13 36  1  0
 15 37  1  0
 15 38  1  0
 15 39  1  0
 17 40  1  0
 20 41  1  0
 20 42  1  0
 22 43  1  0
 23 44  1  0
 26 45  1  0
 28 46  1  0
 28 47  1  0
 28 48  1  0
 30 49  1  0
 30 50  1  0
 30 51  1  0
M  END
>  <s_m_entry_id>  (32) 
941

>  <MODEL>  (32) 
1

>  <REMARK>  (32) 
 VINA RESULT:    -9.383      0.000      0.000
 INTER + INTRA:         -12.231
 INTER:                 -11.849
 INTRA:                  -0.383
 UNBOUND:                -0.106
  Name = /scratch/kmzp800/tmp336uht9o/tmp55_mqk7o.pdb
  8 active torsions:
  status: ('A' for Active; 'I' for Inactive)
    1  A    between atoms: N2_5  and  C4_6
    2  A    between atoms: C7_9  and  O1_10
    3  A    between atoms: O1_10  and  C8_11
    4  A    between atoms: C9_12  and  O2_13
    5  A    between atoms: O2_13  and  C10_14
    6  A    between atoms: C12_17  and  C13_18
    7  A    between atoms: C16_21  and  C17_22
    8  A    between atoms: C18_23  and  C19_24
                            x       y       z     vdW  Elec       q    Type
                         _______ _______ _______ _____ _____    ______ ____

>  <TORSDO>  (32) 
F 5

>  <grid_id>  (32) 
syk-prepared

>  <grid_path>  (32) 
syk_vina.pdbqt

>  <grid_filename>  (32) 
syk_vina.pdbqt

>  <docking_score>  (32) 
-9.383

>  <compound_name>  (32) 
CHEMBL3265009

>  <index_string>  (32) 
31:0:0

>  <s_m_Source_Path>  (32) 
/projects/mai/users/kmzp800_harry/pmx_colab/docking_jobs/syk/vina_prep/output

>  <s_m_Source_File>  (32) 
ptp1b_docked_conformers.sdf

>  <i_m_Source_File_Index>  (32) 
765

$$$$
CHEMBL3265029
     RDKit          3D

 43 47  0  0  1  0  0  0  0  0999 V2000
   -2.0700    3.3030   10.2840 C   0  0  0  0  0  0  0  0  0  0  0  0
   -2.4710    2.1740   10.9230 N   0  0  0  0  0  0  0  0  0  0  0  0
   -1.3720    1.7840   11.5910 C   0  0  0  0  0  0  0  0  0  0  0  0
   -1.2480    0.6660   12.4110 C   0  0  0  0  0  0  0  0  0  0  0  0
   -2.3630   -0.2130   12.6200 N   0  0  0  0  0  0  0  0  0  0  0  0
   -0.0360    0.4460   13.0030 N   0  0  0  0  0  0  0  0  0  0  0  0
    1.0350    1.2790   12.8100 C   0  0  0  0  0  0  0  0  0  0  0  0
    0.8820    2.4020   11.9740 C   0  0  0  0  0  0  0  0  0  0  0  0
   -0.3300    2.5970   11.4010 N   0  0  0  0  0  0  0  0  0  0  0  0
   -0.7360    3.5720   10.5770 C   0  0  0  0  0  0  0  0  0  0  0  0
    2.3230    0.9930   13.4730 C   0  0  0  0  0  0  0  0  0  0  0  0
    3.5180    1.6260   13.0390 C   0  0  0  0  0  0  0  0  0  0  0  0
    4.7500    1.3600   13.6640 C   0  0  0  0  0  0  0  0  0  0  0  0
    4.7440    0.4550   14.7200 C   0  0  0  0  0  0  0  0  0  0  0  0
    5.7570   -0.0130   15.5250 C   0  0  0  0  0  0  0  0  0  0  0  0
    5.1890   -0.8830   16.3970 N   0  0  0  0  0  0  0  0  0  0  0  0
    3.8810   -0.9760   16.1700 N   0  0  0  0  0  0  0  0  0  0  0  0
    3.6060   -0.1580   15.1460 C   0  0  0  0  0  0  0  0  0  0  0  0
    2.3710    0.0810   14.5510 C   0  0  0  0  0  0  0  0  0  0  0  0
   -2.3930   -1.3960   13.4320 C   0  0  0  0  0  0  0  0  0  0  0  0
   -1.3950   -1.6760   14.3760 C   0  0  0  0  0  0  0  0  0  0  0  0
   -1.4580   -2.8390   15.1480 C   0  0  0  0  0  0  0  0  0  0  0  0
   -2.5240   -3.7380   14.9840 C   0  0  0  0  0  0  0  0  0  0  0  0
   -3.5180   -3.4580   14.0420 C   0  0  0  0  0  0  0  0  0  0  0  0
   -3.4520   -2.2940   13.2710 C   0  0  0  0  0  0  0  0  0  0  0  0
   -2.6170   -4.9100   15.7390 O   0  0  0  0  0  0  0  0  0  0  0  0
   -2.7400   -6.1960   15.1480 C   0  0  0  0  0  0  0  0  0  0  0  0
   -2.7070    3.9162    9.6296 H   0  0  0  0  0  0  0  0  0  0  0  0
   -3.2375    0.0320   12.1340 H   0  0  0  0  0  0  0  0  0  0  0  0
    1.7163    3.0956   11.7929 H   0  0  0  0  0  0  0  0  0  0  0  0
   -0.1357    4.4159   10.2063 H   0  0  0  0  0  0  0  0  0  0  0  0
    3.4796    2.3363   12.2000 H   0  0  0  0  0  0  0  0  0  0  0  0
    5.6786    1.8471   13.3316 H   0  0  0  0  0  0  0  0  0  0  0  0
    6.8201    0.2643   15.4718 H   0  0  0  0  0  0  0  0  0  0  0  0
    3.2092   -1.5642   16.6834 H   0  0  0  0  0  0  0  0  0  0  0  0
    1.4614   -0.4239   14.9084 H   0  0  0  0  0  0  0  0  0  0  0  0
   -0.5572   -0.9758   14.5098 H   0  0  0  0  0  0  0  0  0  0  0  0
   -0.6704   -3.0508   15.8861 H   0  0  0  0  0  0  0  0  0  0  0  0
   -4.3564   -4.1572   13.9068 H   0  0  0  0  0  0  0  0  0  0  0  0
   -4.2392   -2.0831   12.5322 H   0  0  0  0  0  0  0  0  0  0  0  0
   -2.8128   -6.9574   15.9386 H   0  0  0  0  0  0  0  0  0  0  0  0
   -3.6453   -6.2277   14.5239 H   0  0  0  0  0  0  0  0  0  0  0  0
   -1.8571   -6.3987   14.5239 H   0  0  0  0  0  0  0  0  0  0  0  0
  1 10  2  0
  1  2  1  0
  2  3  2  0
  3  4  1  0
  3  9  1  0
  4  5  1  0
  4  6  2  0
  5 20  1  0
  6  7  1  0
  7 11  1  0
  7  8  2  0
  8  9  1  0
  9 10  1  0
 11 19  1  0
 11 12  2  0
 12 13  1  0
 13 14  2  0
 14 18  1  0
 14 15  1  0
 15 16  2  0
 16 17  1  0
 17 18  1  0
 18 19  2  0
 20 21  2  0
 20 25  1  0
 21 22  1  0
 22 23  2  0
 23 26  1  0
 23 24  1  0
 24 25  2  0
 26 27  1  0
  1 28  1  0
  5 29  1  0
  8 30  1  0
 10 31  1  0
 12 32  1  0
 13 33  1  0
 15 34  1  0
 17 35  1  0
 19 36  1  0
 21 37  1  0
 22 38  1  0
 24 39  1  0
 25 40  1  0
 27 41  1  0
 27 42  1  0
 27 43  1  0
M  END
>  <s_m_entry_id>  (33) 
1001

>  <MODEL>  (33) 
9

>  <REMARK>  (33) 
 VINA RESULT:    -8.208      3.231      7.736
 INTER + INTRA:          -9.840
 INTER:                  -9.663
 INTRA:                  -0.177
 UNBOUND:                -0.193
  Name = /scratch/kmzp800/tmpa_c0i03n/tmpor08rp0v.pdb
  4 active torsions:
  status: ('A' for Active; 'I' for Inactive)
    1  A    between atoms: N2_5  and  C4_6
    2  A    between atoms: C7_9  and  O1_10
    3  A    between atoms: O1_10  and  C8_11
    4  A    between atoms: C11_15  and  C12_16
                            x       y       z     vdW  Elec       q    Type
                         _______ _______ _______ _____ _____    ______ ____

>  <TORSDO>  (33) 
F 3

>  <grid_id>  (33) 
syk-prepared

>  <grid_path>  (33) 
syk_vina.pdbqt

>  <grid_filename>  (33) 
syk_vina.pdbqt

>  <docking_score>  (33) 
-8.208

>  <compound_name>  (33) 
CHEMBL3265029

>  <index_string>  (33) 
32:0:8

>  <s_m_Source_Path>  (33) 
/projects/mai/users/kmzp800_harry/pmx_colab/docking_jobs/syk/vina_prep/output

>  <s_m_Source_File>  (33) 
ptp1b_docked_conformers.sdf

>  <i_m_Source_File_Index>  (33) 
825

$$$$
CHEMBL3265030_n
     RDKit          3D

 52 57  0  0  1  0  0  0  0  0999 V2000
    1.8230   -1.4390   15.4030 N   0  0  0  0  0  0  0  0  0  0  0  0
    2.7020   -0.4620   14.8260 C   0  0  0  0  0  0  0  0  0  0  0  0
    2.3100    0.3380   13.7910 N   0  0  0  0  0  0  0  0  0  0  0  0
    3.1420    1.2740   13.2320 C   0  0  0  0  0  0  0  0  0  0  0  0
    4.4470    1.4140   13.7410 C   0  0  0  0  0  0  0  0  0  0  0  0
    4.8100    0.6080   14.7670 N   0  0  0  0  0  0  0  0  0  0  0  0
    5.9750    0.5380   15.4250 C   0  0  0  0  0  0  0  0  0  0  0  0
    5.8200   -0.4570   16.3870 C   0  0  0  0  0  0  0  0  0  0  0  0
    4.5720   -0.9860   16.3130 N   0  0  0  0  0  0  0  0  0  0  0  0
    3.9980   -0.3020   15.3090 C   0  0  0  0  0  0  0  0  0  0  0  0
    2.6650    2.1140   12.1140 C   0  0  0  0  0  0  0  0  0  0  0  0
    3.5730    2.6160   11.1460 C   0  0  0  0  0  0  0  0  0  0  0  0
    3.1290    3.4180   10.0780 C   0  0  0  0  0  0  0  0  0  0  0  0
    1.7680    3.6920   10.0150 C   0  0  0  0  0  0  0  0  0  0  0  0
    1.0280    4.4270    9.1180 C   0  0  0  0  0  0  0  0  0  0  0  0
   -0.2630    4.3640    9.5350 N   0  0  0  0  0  0  0  0  0  0  0  0
   -0.3540    3.6300   10.6400 N   0  0  0  0  0  0  0  0  0  0  0  0
    0.8860    3.2170   10.9360 C   0  0  0  0  0  0  0  0  0  0  0  0
    1.2890    2.4230   12.0050 C   0  0  0  0  0  0  0  0  0  0  0  0
   -2.1730   -2.3420   14.3040 C   0  0  0  0  0  0  0  0  0  0  0  0
   -1.5900   -1.1530   13.8590 C   0  0  0  0  0  0  0  0  0  0  0  0
   -0.2740   -0.8430   14.2140 C   0  0  0  0  0  0  0  0  0  0  0  0
    0.4710   -1.7200   15.0180 C   0  0  0  0  0  0  0  0  0  0  0  0
   -0.1210   -2.9090   15.4590 C   0  0  0  0  0  0  0  0  0  0  0  0
   -1.4360   -3.2200   15.1050 C   0  0  0  0  0  0  0  0  0  0  0  0
   -5.5780   -3.1480   13.3870 C   0  0  0  0  0  0  0  0  0  0  0  0
   -6.1610   -4.5440   13.4450 C   0  0  0  0  0  0  0  0  0  0  0  0
   -4.8310   -2.7450   14.6020 C   0  0  0  0  0  0  0  0  0  0  0  0
   -3.5160   -2.6600   13.9420 N   0  0  0  0  0  0  0  0  0  0  0  0
   -4.2510   -3.0630   12.7310 C   0  0  0  0  0  0  0  0  0  0  0  0
   -6.4670   -2.1690   12.9460 O   0  0  0  0  0  0  0  0  0  0  0  0
    2.2053   -1.9993   16.1782 H   0  0  0  0  0  0  0  0  0  0  0  0
    5.1466    2.1514   13.3206 H   0  0  0  0  0  0  0  0  0  0  0  0
    6.8740    1.1449   15.2420 H   0  0  0  0  0  0  0  0  0  0  0  0
    6.5954   -0.7687   17.1022 H   0  0  0  0  0  0  0  0  0  0  0  0
    4.6426    2.3741   11.2318 H   0  0  0  0  0  0  0  0  0  0  0  0
    3.8289    3.8109    9.3258 H   0  0  0  0  0  0  0  0  0  0  0  0
    1.4079    4.9616    8.2349 H   0  0  0  0  0  0  0  0  0  0  0  0
   -1.2132    3.4192   11.1675 H   0  0  0  0  0  0  0  0  0  0  0  0
    0.5621    2.0482   12.7406 H   0  0  0  0  0  0  0  0  0  0  0  0
   -2.1670   -0.4602   13.2288 H   0  0  0  0  0  0  0  0  0  0  0  0
    0.1808    0.0943   13.8610 H   0  0  0  0  0  0  0  0  0  0  0  0
    0.4536   -3.6039   16.0891 H   0  0  0  0  0  0  0  0  0  0  0  0
   -1.8925   -4.1569   15.4568 H   0  0  0  0  0  0  0  0  0  0  0  0
   -6.2869   -4.8454   14.4954 H   0  0  0  0  0  0  0  0  0  0  0  0
   -7.1386   -4.5543   12.9409 H   0  0  0  0  0  0  0  0  0  0  0  0
   -5.4811   -5.2465   12.9409 H   0  0  0  0  0  0  0  0  0  0  0  0
   -5.1672   -1.7798   15.0087 H   0  0  0  0  0  0  0  0  0  0  0  0
   -4.9122   -3.3968   15.4844 H   0  0  0  0  0  0  0  0  0  0  0  0
   -3.9119   -4.0287   12.3280 H   0  0  0  0  0  0  0  0  0  0  0  0
   -4.1648   -2.4127   11.8480 H   0  0  0  0  0  0  0  0  0  0  0  0
   -6.8760   -1.7186   13.7270 H   0  0  0  0  0  0  0  0  0  0  0  0
  1  2  1  0
  1 23  1  0
  2 10  1  0
  2  3  2  0
  3  4  1  0
  4  5  2  0
  4 11  1  0
  5  6  1  0
  6 10  1  0
  6  7  1  0
  7  8  2  0
  8  9  1  0
  9 10  2  0
 11 12  2  0
 11 19  1  0
 12 13  1  0
 13 14  2  0
 14 18  1  0
 14 15  1  0
 15 16  2  0
 16 17  1  0
 17 18  1  0
 18 19  2  0
 20 25  1  0
 20 21  2  0
 20 29  1  0
 21 22  1  0
 22 23  2  0
 23 24  1  0
 24 25  2  0
 26 27  1  0
 26 28  1  0
 26 30  1  0
 26 31  1  0
 28 29  1  0
 29 30  1  0
  1 32  1  0
  5 33  1  0
  7 34  1  0
  8 35  1  0
 12 36  1  0
 13 37  1  0
 15 38  1  0
 17 39  1  0
 19 40  1  0
 21 41  1  0
 22 42  1  0
 24 43  1  0
 25 44  1  0
 27 45  1  0
 27 46  1  0
 27 47  1  0
 28 48  1  0
 28 49  1  0
 30 50  1  0
 30 51  1  0
 31 52  1  0
M  END
>  <s_m_entry_id>  (34) 
1013

>  <MODEL>  (34) 
1

>  <REMARK>  (34) 
 VINA RESULT:    -9.512      0.000      0.000
 INTER + INTRA:         -12.076
 INTER:                 -11.811
 INTRA:                  -0.264
 UNBOUND:                -0.617
  Name = /scratch/kmzp800/tmp0pa_g58c/tmp68l9_bcx.pdb
  5 active torsions:
  status: ('A' for Active; 'I' for Inactive)
    1  A    between atoms: O1_1  and  C1_2
    2  A    between atoms: C1_2  and  C2_3
    3  A    between atoms: N1_5  and  C4_6
    4  A    between atoms: C7_9  and  N2_10
    5  A    between atoms: C9_13  and  C10_14
                            x       y       z     vdW  Elec       q    Type
                         _______ _______ _______ _____ _____    ______ ____

>  <TORSDO>  (34) 
F 4

>  <grid_id>  (34) 
syk-prepared

>  <grid_path>  (34) 
syk_vina.pdbqt

>  <grid_filename>  (34) 
syk_vina.pdbqt

>  <docking_score>  (34) 
-9.512

>  <compound_name>  (34) 
CHEMBL3265030_n

>  <index_string>  (34) 
33:0:0

>  <s_m_Source_Path>  (34) 
/projects/mai/users/kmzp800_harry/pmx_colab/docking_jobs/syk/vina_prep/output

>  <s_m_Source_File>  (34) 
ptp1b_docked_conformers.sdf

>  <i_m_Source_File_Index>  (34) 
837

$$$$
CHEMBL3264994
     RDKit          3D

 65 69  0  0  1  0  0  0  0  0999 V2000
    6.0700   -0.3780   16.2950 C   0  0  0  0  0  0  0  0  0  0  0  0
    4.8340   -0.9400   16.2630 N   0  0  0  0  0  0  0  0  0  0  0  0
    4.2040   -0.2610   15.2890 C   0  0  0  0  0  0  0  0  0  0  0  0
    2.8950   -0.4470   14.8540 C   0  0  0  0  0  0  0  0  0  0  0  0
    2.0610   -1.4540   15.4470 N   0  0  0  0  0  0  0  0  0  0  0  0
    2.4450    0.3520   13.8430 N   0  0  0  0  0  0  0  0  0  0  0  0
    3.2290    1.3150   13.2640 C   0  0  0  0  0  0  0  0  0  0  0  0
    4.5490    1.4870   13.7270 C   0  0  0  0  0  0  0  0  0  0  0  0
    4.9710    0.6780   14.7270 N   0  0  0  0  0  0  0  0  0  0  0  0
    6.1620    0.6310   15.3400 C   0  0  0  0  0  0  0  0  0  0  0  0
    0.6810   -1.7100   15.1490 C   0  0  0  0  0  0  0  0  0  0  0  0
    0.0920   -2.8830   15.6300 C   0  0  0  0  0  0  0  0  0  0  0  0
   -1.2520   -3.1630   15.3650 C   0  0  0  0  0  0  0  0  0  0  0  0
   -2.0410   -2.2620   14.6270 C   0  0  0  0  0  0  0  0  0  0  0  0
   -1.4360   -1.0960   14.1270 C   0  0  0  0  0  0  0  0  0  0  0  0
   -0.0930   -0.8190   14.3920 C   0  0  0  0  0  0  0  0  0  0  0  0
   -3.4780   -2.5960   14.2730 C   0  0  0  0  0  0  0  0  0  0  0  0
   -3.7180   -4.0990   14.2710 C   0  0  0  0  0  0  0  0  0  0  0  0
   -3.8480   -2.0750   12.8920 C   0  0  0  0  0  0  0  0  0  0  0  0
   -4.4040   -1.9610   15.2920 C   0  0  0  0  0  0  0  0  0  0  0  0
    2.6810    2.1500   12.1760 C   0  0  0  0  0  0  0  0  0  0  0  0
    3.4450    2.4620   11.0420 C   0  0  0  0  0  0  0  0  0  0  0  0
    2.9090    3.2640   10.0290 C   0  0  0  0  0  0  0  0  0  0  0  0
    1.6060    3.7570   10.1420 C   0  0  0  0  0  0  0  0  0  0  0  0
    0.8280    3.4480   11.2620 C   0  0  0  0  0  0  0  0  0  0  0  0
    1.3760    2.6500   12.2760 C   0  0  0  0  0  0  0  0  0  0  0  0
   -0.5000    3.9800   11.3570 N   0  0  0  0  0  0  0  0  0  0  0  0
   -1.7080    3.2210   11.5200 C   0  0  0  0  0  0  0  0  0  0  0  0
   -1.6910    1.9630   11.4340 O   0  0  0  0  0  0  0  0  0  0  0  0
   -2.9830    3.9140   11.7750 C   0  0  0  0  0  0  0  0  0  0  0  0
   -4.1570    3.4980   11.1310 C   0  0  0  0  0  0  0  0  0  0  0  0
   -5.3680    4.1510   11.3760 C   0  0  0  0  0  0  0  0  0  0  0  0
   -5.4230    5.2290   12.2690 C   0  0  0  0  0  0  0  0  0  0  0  0
   -4.2500    5.6460   12.9140 C   0  0  0  0  0  0  0  0  0  0  0  0
   -3.0380    4.9920   12.6690 C   0  0  0  0  0  0  0  0  0  0  0  0
   -6.7000    5.9130   12.5240 C   0  0  0  0  0  0  0  0  0  0  0  0
   -7.6500    5.8180   11.7020 O   0  0  0  0  0  0  0  0  0  0  0  0
   -6.8700    6.6730   13.6760 O   0  0  0  0  0  0  0  0  0  0  0  0
    6.8804   -0.6765   16.9762 H   0  0  0  0  0  0  0  0  0  0  0  0
    2.4986   -2.0548   16.1601 H   0  0  0  0  0  0  0  0  0  0  0  0
    5.2114    2.2499   13.2921 H   0  0  0  0  0  0  0  0  0  0  0  0
    7.0374    1.2633   15.1304 H   0  0  0  0  0  0  0  0  0  0  0  0
    0.6906   -3.5913   16.2216 H   0  0  0  0  0  0  0  0  0  0  0  0
   -1.6970   -4.0975   15.7374 H   0  0  0  0  0  0  0  0  0  0  0  0
   -2.0268   -0.3939   13.5203 H   0  0  0  0  0  0  0  0  0  0  0  0
    0.3608    0.1049   14.0040 H   0  0  0  0  0  0  0  0  0  0  0  0
   -3.7760   -4.4624   15.3076 H   0  0  0  0  0  0  0  0  0  0  0  0
   -4.6626   -4.3188   13.7520 H   0  0  0  0  0  0  0  0  0  0  0  0
   -2.8888   -4.6020   13.7520 H   0  0  0  0  0  0  0  0  0  0  0  0
   -4.4821   -1.1821   12.9948 H   0  0  0  0  0  0  0  0  0  0  0  0
   -2.9324   -1.8131   12.3415 H   0  0  0  0  0  0  0  0  0  0  0  0
   -4.3969   -2.8532   12.3415 H   0  0  0  0  0  0  0  0  0  0  0  0
   -4.0531   -2.2016   16.3064 H   0  0  0  0  0  0  0  0  0  0  0  0
   -4.4074   -0.8696   15.1544 H   0  0  0  0  0  0  0  0  0  0  0  0
   -5.4233   -2.3511   15.1544 H   0  0  0  0  0  0  0  0  0  0  0  0
    4.4702    2.0743   10.9488 H   0  0  0  0  0  0  0  0  0  0  0  0
    3.5135    3.5069    9.1427 H   0  0  0  0  0  0  0  0  0  0  0  0
    1.1903    4.3916    9.3454 H   0  0  0  0  0  0  0  0  0  0  0  0
    0.7719    2.4127   13.1641 H   0  0  0  0  0  0  0  0  0  0  0  0
   -0.5967    5.0040   11.3032 H   0  0  0  0  0  0  0  0  0  0  0  0
   -4.1246    2.6522   10.4284 H   0  0  0  0  0  0  0  0  0  0  0  0
   -6.2829    3.8168   10.8649 H   0  0  0  0  0  0  0  0  0  0  0  0
   -4.2830    6.4919   13.6164 H   0  0  0  0  0  0  0  0  0  0  0  0
   -2.1232    5.3256   13.1807 H   0  0  0  0  0  0  0  0  0  0  0  0
   -7.7311    7.1317   13.8438 H   0  0  0  0  0  0  0  0  0  0  0  0
  1  2  1  0
  1 10  2  0
  2  3  2  0
  3  4  1  0
  3  9  1  0
  4  5  1  0
  4  6  2  0
  5 11  1  0
  6  7  1  0
  7  8  2  0
  7 21  1  0
  8  9  1  0
  9 10  1  0
 11 12  2  0
 11 16  1  0
 12 13  1  0
 13 14  2  0
 14 15  1  0
 14 17  1  0
 15 16  2  0
 17 20  1  0
 17 18  1  0
 17 19  1  0
 21 26  1  0
 21 22  2  0
 22 23  1  0
 23 24  2  0
 24 25  1  0
 25 27  1  0
 25 26  2  0
 27 28  1  0
 28 30  1  0
 28 29  2  0
 30 35  1  0
 30 31  2  0
 31 32  1  0
 32 33  2  0
 33 36  1  0
 33 34  1  0
 34 35  2  0
 36 38  1  0
 36 37  2  0
  1 39  1  0
  5 40  1  0
  8 41  1  0
 10 42  1  0
 12 43  1  0
 13 44  1  0
 15 45  1  0
 16 46  1  0
 18 47  1  0
 18 48  1  0
 18 49  1  0
 19 50  1  0
 19 51  1  0
 19 52  1  0
 20 53  1  0
 20 54  1  0
 20 55  1  0
 22 56  1  0
 23 57  1  0
 24 58  1  0
 26 59  1  0
 27 60  1  0
 31 61  1  0
 32 62  1  0
 34 63  1  0
 35 64  1  0
 38 65  1  0
M  END
>  <s_m_entry_id>  (35) 
1031

>  <MODEL>  (35) 
1

>  <REMARK>  (35) 
 VINA RESULT:   -10.351      0.000      0.000
 INTER + INTRA:         -14.429
 INTER:                 -13.560
 INTRA:                  -0.869
 UNBOUND:                -0.447
  Name = /scratch/kmzp800/tmppq76zt6o/tmplqsb5_1f.pdb
  9 active torsions:
  status: ('A' for Active; 'I' for Inactive)
    1  A    between atoms: N2_5  and  C4_6
    2  A    between atoms: C7_9  and  C8_10
    3  A    between atoms: C8_10  and  C9_11
    4  A    between atoms: C8_10  and  C10_12
    5  A    between atoms: C8_10  and  C11_13
    6  A    between atoms: C14_17  and  C15_18
    7  A    between atoms: C19_22  and  N4_23
    8  A    between atoms: C20_24  and  C21_26
    9  A    between atoms: C24_29  and  C25_30
                            x       y       z     vdW  Elec       q    Type
                         _______ _______ _______ _____ _____    ______ ____

>  <TORSDO>  (35) 
F 6

>  <grid_id>  (35) 
syk-prepared

>  <grid_path>  (35) 
syk_vina.pdbqt

>  <grid_filename>  (35) 
syk_vina.pdbqt

>  <docking_score>  (35) 
-10.351

>  <compound_name>  (35) 
CHEMBL3264994

>  <index_string>  (35) 
34:0:0

>  <s_m_Source_Path>  (35) 
/projects/mai/users/kmzp800_harry/pmx_colab/docking_jobs/syk/vina_prep/output

>  <s_m_Source_File>  (35) 
ptp1b_docked_conformers.sdf

>  <i_m_Source_File_Index>  (35) 
855

$$$$
CHEMBL3265000
     RDKit          3D

 68 72  0  0  1  0  0  0  0  0999 V2000
    0.8110   -0.8770   14.4400 C   0  0  0  0  0  0  0  0  0  0  0  0
    0.4030   -2.0670   15.0620 C   0  0  0  0  0  0  0  0  0  0  0  0
   -0.9210   -2.5020   14.9530 C   0  0  0  0  0  0  0  0  0  0  0  0
   -1.8470   -1.7530   14.2200 C   0  0  0  0  0  0  0  0  0  0  0  0
   -1.4540   -0.5640   13.5910 C   0  0  0  0  0  0  0  0  0  0  0  0
   -0.1270   -0.1360   13.7080 C   0  0  0  0  0  0  0  0  0  0  0  0
    6.4140    0.1520   15.9850 C   0  0  0  0  0  0  0  0  0  0  0  0
    6.0770    0.8420   14.8660 N   0  0  0  0  0  0  0  0  0  0  0  0
    4.7920    0.5060   14.6620 C   0  0  0  0  0  0  0  0  0  0  0  0
    3.9650    0.9530   13.6350 C   0  0  0  0  0  0  0  0  0  0  0  0
    4.4550    1.8440   12.6250 N   0  0  0  0  0  0  0  0  0  0  0  0
    2.6870    0.4770   13.6020 N   0  0  0  0  0  0  0  0  0  0  0  0
    2.2030   -0.3950   14.5410 C   0  0  0  0  0  0  0  0  0  0  0  0
    3.0550   -0.8210   15.5780 C   0  0  0  0  0  0  0  0  0  0  0  0
    4.3220   -0.3410   15.5820 N   0  0  0  0  0  0  0  0  0  0  0  0
    5.3240   -0.5890   16.4370 C   0  0  0  0  0  0  0  0  0  0  0  0
    3.6460    2.5500   11.6750 C   0  0  0  0  0  0  0  0  0  0  0  0
    4.2330    3.0240   10.5000 C   0  0  0  0  0  0  0  0  0  0  0  0
    3.4680    3.7230    9.5620 C   0  0  0  0  0  0  0  0  0  0  0  0
    2.1040    3.9690    9.7940 C   0  0  0  0  0  0  0  0  0  0  0  0
    1.5140    3.5160   10.9830 C   0  0  0  0  0  0  0  0  0  0  0  0
    2.2880    2.8080   11.9150 C   0  0  0  0  0  0  0  0  0  0  0  0
    1.3230    4.6610    8.8640 O   0  0  0  0  0  0  0  0  0  0  0  0
    1.3450    6.0780    8.7420 C   0  0  0  0  0  0  0  0  0  0  0  0
    0.1610    3.7860   11.2220 O   0  0  0  0  0  0  0  0  0  0  0  0
   -0.3350    5.1030   11.4240 C   0  0  0  0  0  0  0  0  0  0  0  0
   -2.4170    0.2320   12.8110 C   0  0  0  0  0  0  0  0  0  0  0  0
   -3.5230   -0.2700   12.4750 O   0  0  0  0  0  0  0  0  0  0  0  0
   -2.0790    1.5770   12.4350 N   0  0  0  0  0  0  0  0  0  0  0  0
   -2.9140    2.5200   11.7530 C   0  0  0  0  0  0  0  0  0  0  0  0
   -3.5100    3.5460   12.4920 C   0  0  0  0  0  0  0  0  0  0  0  0
   -4.3410    4.4780   11.8660 C   0  0  0  0  0  0  0  0  0  0  0  0
   -4.5810    4.4030   10.4860 C   0  0  0  0  0  0  0  0  0  0  0  0
   -4.0000    3.3620    9.7510 C   0  0  0  0  0  0  0  0  0  0  0  0
   -3.1690    2.4290   10.3780 C   0  0  0  0  0  0  0  0  0  0  0  0
   -5.4950    5.3750    9.8490 C   0  0  0  0  0  0  0  0  0  0  0  0
   -5.5620    6.5430   10.3190 O   0  0  0  0  0  0  0  0  0  0  0  0
   -6.3230    5.0490    8.7250 N   0  0  0  0  0  0  0  0  0  0  0  0
   -5.9290    5.3260    7.0580 S   0  0  0  0  0  6  0  0  0  0  0  0
   -7.0710    6.0500    6.4030 O   0  0  0  0  0  0  0  0  0  0  0  0
   -4.6970    6.1800    6.9560 O   0  0  0  0  0  0  0  0  0  0  0  0
   -5.6690    3.7780    6.2230 C   0  0  0  0  0  0  0  0  0  0  0  0
    1.1285   -2.6602   15.6380 H   0  0  0  0  0  0  0  0  0  0  0  0
   -1.2349   -3.4347   15.4444 H   0  0  0  0  0  0  0  0  0  0  0  0
   -2.8880   -2.0986   14.1369 H   0  0  0  0  0  0  0  0  0  0  0  0
    0.1854    0.7976   13.2173 H   0  0  0  0  0  0  0  0  0  0  0  0
    7.4034    0.1744   16.4652 H   0  0  0  0  0  0  0  0  0  0  0  0
    5.4736    1.9893   12.5777 H   0  0  0  0  0  0  0  0  0  0  0  0
    2.7054   -1.5167   16.3550 H   0  0  0  0  0  0  0  0  0  0  0  0
    5.2922   -1.2459   17.3188 H   0  0  0  0  0  0  0  0  0  0  0  0
    5.3021    2.8465   10.3118 H   0  0  0  0  0  0  0  0  0  0  0  0
    3.9374    4.0834    8.6348 H   0  0  0  0  0  0  0  0  0  0  0  0
    1.8239    2.4506   12.8460 H   0  0  0  0  0  0  0  0  0  0  0  0
    1.3521    6.5322    9.7438 H   0  0  0  0  0  0  0  0  0  0  0  0
    2.2480    6.3849    8.1939 H   0  0  0  0  0  0  0  0  0  0  0  0
    0.4519    6.4127    8.1939 H   0  0  0  0  0  0  0  0  0  0  0  0
   -0.4110    5.3048   12.5027 H   0  0  0  0  0  0  0  0  0  0  0  0
    0.3516    5.8282   10.9628 H   0  0  0  0  0  0  0  0  0  0  0  0
   -1.3294    5.1951   10.9628 H   0  0  0  0  0  0  0  0  0  0  0  0
   -1.1324    1.8983   12.6831 H   0  0  0  0  0  0  0  0  0  0  0  0
   -3.3234    3.6199   13.5735 H   0  0  0  0  0  0  0  0  0  0  0  0
   -4.8105    5.2764   12.4594 H   0  0  0  0  0  0  0  0  0  0  0  0
   -4.1990    3.2779    8.6724 H   0  0  0  0  0  0  0  0  0  0  0  0
   -2.7130    1.6194    9.7892 H   0  0  0  0  0  0  0  0  0  0  0  0
   -7.2335    4.6110    8.9249 H   0  0  0  0  0  0  0  0  0  0  0  0
   -5.5347    2.9784    6.9664 H   0  0  0  0  0  0  0  0  0  0  0  0
   -6.5415    3.5502    5.5930 H   0  0  0  0  0  0  0  0  0  0  0  0
   -4.7700    3.8477    5.5930 H   0  0  0  0  0  0  0  0  0  0  0  0
  1 13  1  0
  1  2  2  0
  1  6  1  0
  2  3  1  0
  3  4  2  0
  4  5  1  0
  5  6  2  0
  5 27  1  0
  7 16  2  0
  7  8  1  0
  8  9  2  0
  9 15  1  0
  9 10  1  0
 10 11  1  0
 10 12  2  0
 11 17  1  0
 12 13  1  0
 13 14  2  0
 14 15  1  0
 15 16  1  0
 17 22  1  0
 17 18  2  0
 18 19  1  0
 19 20  2  0
 20 21  1  0
 20 23  1  0
 21 25  1  0
 21 22  2  0
 23 24  1  0
 25 26  1  0
 27 28  2  0
 27 29  1  0
 29 30  1  0
 30 31  2  0
 30 35  1  0
 31 32  1  0
 32 33  2  0
 33 34  1  0
 33 36  1  0
 34 35  2  0
 36 37  2  0
 36 38  1  0
 38 39  1  0
 39 40  2  0
 39 41  2  0
 39 42  1  0
  2 43  1  0
  3 44  1  0
  4 45  1  0
  6 46  1  0
  7 47  1  0
 11 48  1  0
 14 49  1  0
 16 50  1  0
 18 51  1  0
 19 52  1  0
 22 53  1  0
 24 54  1  0
 24 55  1  0
 24 56  1  0
 26 57  1  0
 26 58  1  0
 26 59  1  0
 29 60  1  0
 31 61  1  0
 32 62  1  0
 34 63  1  0
 35 64  1  0
 38 65  1  0
 42 66  1  0
 42 67  1  0
 42 68  1  0
M  END
>  <s_m_entry_id>  (36) 
1037

>  <MODEL>  (36) 
1

>  <REMARK>  (36) 
 VINA RESULT:    -9.588      0.000      0.000
 INTER + INTRA:         -13.507
 INTER:                 -12.210
 INTRA:                  -1.297
 UNBOUND:                 1.126
  Name = /scratch/kmzp800/tmpfvlj4djh/tmpf5u7qmmo.pdb
  12 active torsions:
  status: ('A' for Active; 'I' for Inactive)
    1  A    between atoms: N2_5  and  C4_6
    2  A    between atoms: C7_9  and  O1_10
    3  A    between atoms: O1_10  and  C8_11
    4  A    between atoms: C9_12  and  O2_13
    5  A    between atoms: O2_13  and  C10_14
    6  A    between atoms: C12_17  and  C13_18
    7  A    between atoms: C17_22  and  C18_23
    8  A    between atoms: N4_25  and  C19_26
    9  A    between atoms: C22_29  and  C23_30
   10  A    between atoms: C23_30  and  N5_32
   11  A    between atoms: N5_32  and  S1_33
   12  A    between atoms: S1_33  and  C24_36
                            x       y       z     vdW  Elec       q    Type
                         _______ _______ _______ _____ _____    ______ ____

>  <TORSDO>  (36) 
F 9

>  <grid_id>  (36) 
syk-prepared

>  <grid_path>  (36) 
syk_vina.pdbqt

>  <grid_filename>  (36) 
syk_vina.pdbqt

>  <docking_score>  (36) 
-9.588

>  <compound_name>  (36) 
CHEMBL3265000

>  <index_string>  (36) 
35:0:0

>  <s_m_Source_Path>  (36) 
/projects/mai/users/kmzp800_harry/pmx_colab/docking_jobs/syk/vina_prep/output

>  <s_m_Source_File>  (36) 
ptp1b_docked_conformers.sdf

>  <i_m_Source_File_Index>  (36) 
861

$$$$
CHEMBL3265034
     RDKit          3D

 53 58  0  0  1  0  0  0  0  0999 V2000
    5.8300   -0.4530   16.2750 C   0  0  0  0  0  0  0  0  0  0  0  0
    4.5650   -0.9460   16.2480 N   0  0  0  0  0  0  0  0  0  0  0  0
    3.9750   -0.2500   15.2620 C   0  0  0  0  0  0  0  0  0  0  0  0
    2.6590   -0.3750   14.8250 C   0  0  0  0  0  0  0  0  0  0  0  0
    1.7740   -1.3230   15.4390 N   0  0  0  0  0  0  0  0  0  0  0  0
    2.2530    0.4340   13.8020 N   0  0  0  0  0  0  0  0  0  0  0  0
    3.0910    1.3420   13.2100 C   0  0  0  0  0  0  0  0  0  0  0  0
    4.4170    1.4470   13.6720 C   0  0  0  0  0  0  0  0  0  0  0  0
    4.7940    0.6350   14.6880 N   0  0  0  0  0  0  0  0  0  0  0  0
    5.9790    0.5340   15.3040 C   0  0  0  0  0  0  0  0  0  0  0  0
    2.5980    2.1920   12.1060 C   0  0  0  0  0  0  0  0  0  0  0  0
    3.5170    2.7350   11.1720 C   0  0  0  0  0  0  0  0  0  0  0  0
    3.0790    3.5490   10.1090 C   0  0  0  0  0  0  0  0  0  0  0  0
    1.7140    3.7940   10.0200 C   0  0  0  0  0  0  0  0  0  0  0  0
    0.9780    4.5310    9.1220 C   0  0  0  0  0  0  0  0  0  0  0  0
   -0.3200    4.4300    9.5050 N   0  0  0  0  0  0  0  0  0  0  0  0
   -0.4200    3.6700   10.5930 N   0  0  0  0  0  0  0  0  0  0  0  0
    0.8220    3.2790   10.9110 C   0  0  0  0  0  0  0  0  0  0  0  0
    1.2190    2.4720   11.9710 C   0  0  0  0  0  0  0  0  0  0  0  0
    0.4010   -1.5690   15.1040 C   0  0  0  0  0  0  0  0  0  0  0  0
   -0.1890   -2.7660   15.5190 C   0  0  0  0  0  0  0  0  0  0  0  0
   -1.5240   -3.0440   15.2130 C   0  0  0  0  0  0  0  0  0  0  0  0
   -2.2850   -2.1220   14.4860 C   0  0  0  0  0  0  0  0  0  0  0  0
   -1.6990   -0.9190   14.0670 C   0  0  0  0  0  0  0  0  0  0  0  0
   -0.3640   -0.6440   14.3740 C   0  0  0  0  0  0  0  0  0  0  0  0
   -3.7110   -2.4420   14.1700 C   0  0  0  0  0  0  0  0  0  0  0  0
   -3.8340   -3.8000   13.4770 C   0  0  0  0  0  0  0  0  0  0  0  0
   -5.3150   -4.1530   13.3350 C   0  0  0  0  0  0  0  0  0  0  0  0
   -5.9180   -4.2080   14.6050 O   0  0  0  0  0  0  0  0  0  0  0  0
   -5.9860   -2.8850   15.0800 C   0  0  0  0  0  0  0  0  0  0  0  0
   -4.5840   -2.3830   15.4250 C   0  0  0  0  0  0  0  0  0  0  0  0
    6.6213   -0.7848   16.9633 H   0  0  0  0  0  0  0  0  0  0  0  0
    2.1677   -1.8890   16.2042 H   0  0  0  0  0  0  0  0  0  0  0  0
    5.1214    2.1630   13.2236 H   0  0  0  0  0  0  0  0  0  0  0  0
    6.8878    1.1144   15.0865 H   0  0  0  0  0  0  0  0  0  0  0  0
    4.5898    2.5168   11.2795 H   0  0  0  0  0  0  0  0  0  0  0  0
    3.7867    3.9723    9.3810 H   0  0  0  0  0  0  0  0  0  0  0  0
    1.3663    5.0935    8.2601 H   0  0  0  0  0  0  0  0  0  0  0  0
   -1.2864    3.4284   11.0948 H   0  0  0  0  0  0  0  0  0  0  0  0
    0.4843    2.0648   12.6812 H   0  0  0  0  0  0  0  0  0  0  0  0
    0.4025   -3.4957   16.0915 H   0  0  0  0  0  0  0  0  0  0  0  0
   -1.9775   -3.9898   15.5444 H   0  0  0  0  0  0  0  0  0  0  0  0
   -2.2918   -0.1899   13.4952 H   0  0  0  0  0  0  0  0  0  0  0  0
    0.0903    0.3014   14.0425 H   0  0  0  0  0  0  0  0  0  0  0  0
   -4.0765   -1.6749   13.4714 H   0  0  0  0  0  0  0  0  0  0  0  0
   -3.3696   -3.7494   12.4811 H   0  0  0  0  0  0  0  0  0  0  0  0
   -3.3236   -4.5700   14.0741 H   0  0  0  0  0  0  0  0  0  0  0  0
   -5.8160   -3.3860   12.7262 H   0  0  0  0  0  0  0  0  0  0  0  0
   -5.4082   -5.1344   12.8470 H   0  0  0  0  0  0  0  0  0  0  0  0
   -6.4231   -2.2406   14.3030 H   0  0  0  0  0  0  0  0  0  0  0  0
   -6.6132   -2.8565   15.9832 H   0  0  0  0  0  0  0  0  0  0  0  0
   -4.1469   -3.0193   16.2086 H   0  0  0  0  0  0  0  0  0  0  0  0
   -4.6397   -1.3470   15.7906 H   0  0  0  0  0  0  0  0  0  0  0  0
  1  2  1  0
  1 10  2  0
  2  3  2  0
  3  4  1  0
  3  9  1  0
  4  5  1  0
  4  6  2  0
  5 20  1  0
  6  7  1  0
  7  8  2  0
  7 11  1  0
  8  9  1  0
  9 10  1  0
 11 12  2  0
 11 19  1  0
 12 13  1  0
 13 14  2  0
 14 18  1  0
 14 15  1  0
 15 16  2  0
 16 17  1  0
 17 18  1  0
 18 19  2  0
 20 21  2  0
 20 25  1  0
 21 22  1  0
 22 23  2  0
 23 24  1  0
 23 26  1  0
 24 25  2  0
 26 31  1  0
 26 27  1  0
 27 28  1  0
 28 29  1  0
 29 30  1  0
 30 31  1  0
  1 32  1  0
  5 33  1  0
  8 34  1  0
 10 35  1  0
 12 36  1  0
 13 37  1  0
 15 38  1  0
 17 39  1  0
 19 40  1  0
 21 41  1  0
 22 42  1  0
 24 43  1  0
 25 44  1  0
 26 45  1  0
 27 46  1  0
 27 47  1  0
 28 48  1  0
 28 49  1  0
 30 50  1  0
 30 51  1  0
 31 52  1  0
 31 53  1  0
M  END
>  <s_m_entry_id>  (37) 
1050

>  <MODEL>  (37) 
1

>  <REMARK>  (37) 
 VINA RESULT:   -10.057      0.000      0.000
 INTER + INTRA:         -12.095
 INTER:                 -11.696
 INTRA:                  -0.399
 UNBOUND:                -0.275
  Name = /scratch/kmzp800/tmpx19c2618/tmp92i1mh_r.pdb
  3 active torsions:
  status: ('A' for Active; 'I' for Inactive)
    1  A    between atoms: N2_5  and  C4_6
    2  A    between atoms: C7_9  and  C8_10
    3  A    between atoms: C15_19  and  C16_20
                            x       y       z     vdW  Elec       q    Type
                         _______ _______ _______ _____ _____    ______ ____

>  <TORSDO>  (37) 
F 3

>  <grid_id>  (37) 
syk-prepared

>  <grid_path>  (37) 
syk_vina.pdbqt

>  <grid_filename>  (37) 
syk_vina.pdbqt

>  <docking_score>  (37) 
-10.057

>  <compound_name>  (37) 
CHEMBL3265034

>  <index_string>  (37) 
36:0:0

>  <s_m_Source_Path>  (37) 
/projects/mai/users/kmzp800_harry/pmx_colab/docking_jobs/syk/vina_prep/output

>  <s_m_Source_File>  (37) 
ptp1b_docked_conformers.sdf

>  <i_m_Source_File_Index>  (37) 
874

$$$$
CHEMBL3265026
     RDKit          3D

 51 55  0  0  1  0  0  0  0  0999 V2000
    5.5020   -0.6000   16.2560 C   0  0  0  0  0  0  0  0  0  0  0  0
    4.2240   -1.0420   16.1390 N   0  0  0  0  0  0  0  0  0  0  0  0
    3.7200   -0.2940   15.1440 C   0  0  0  0  0  0  0  0  0  0  0  0
    2.4280   -0.3520   14.6280 C   0  0  0  0  0  0  0  0  0  0  0  0
    1.4770   -1.2830   15.1620 N   0  0  0  0  0  0  0  0  0  0  0  0
    2.1120    0.5020   13.6070 N   0  0  0  0  0  0  0  0  0  0  0  0
    3.0200    1.3920   13.0950 C   0  0  0  0  0  0  0  0  0  0  0  0
    4.3190    1.4300   13.6370 C   0  0  0  0  0  0  0  0  0  0  0  0
    4.6040    0.5750   14.6450 N   0  0  0  0  0  0  0  0  0  0  0  0
    5.7460    0.4080   15.3260 C   0  0  0  0  0  0  0  0  0  0  0  0
    2.6330    2.2960   11.9910 C   0  0  0  0  0  0  0  0  0  0  0  0
    3.5870    2.7040   11.0470 C   0  0  0  0  0  0  0  0  0  0  0  0
    3.2350    3.5640   10.0020 C   0  0  0  0  0  0  0  0  0  0  0  0
    1.9220    4.0230    9.8930 C   0  0  0  0  0  0  0  0  0  0  0  0
    0.9550    3.6010   10.8150 C   0  0  0  0  0  0  0  0  0  0  0  0
    1.3080    2.7510   11.8650 C   0  0  0  0  0  0  0  0  0  0  0  0
   -0.3940    4.0460   10.6560 N   0  0  0  0  0  0  0  0  0  0  0  0
   -0.8050    4.7030    9.4180 C   0  0  0  0  0  0  0  0  0  0  0  0
    0.3160    5.6140    8.9150 C   0  0  0  0  0  0  0  0  0  0  0  0
    1.5560    4.9040    8.8710 O   0  0  0  0  0  0  0  0  0  0  0  0
    0.1170   -1.4770   14.7510 C   0  0  0  0  0  0  0  0  0  0  0  0
   -0.5000   -2.6960   15.0400 C   0  0  0  0  0  0  0  0  0  0  0  0
   -1.8230   -2.9280   14.6600 C   0  0  0  0  0  0  0  0  0  0  0  0
   -2.5510   -1.9400   13.9800 C   0  0  0  0  0  0  0  0  0  0  0  0
   -1.9400   -0.7110   13.6840 C   0  0  0  0  0  0  0  0  0  0  0  0
   -0.6080   -0.4870   14.0720 C   0  0  0  0  0  0  0  0  0  0  0  0
   -3.8780   -2.1540   13.5900 O   0  0  0  0  0  0  0  0  0  0  0  0
   -4.2710   -3.2510   12.7750 C   0  0  0  0  0  0  0  0  0  0  0  0
   -2.6750    0.2680   13.0060 O   0  0  0  0  0  0  0  0  0  0  0  0
   -2.0650    1.3230   12.2790 C   0  0  0  0  0  0  0  0  0  0  0  0
    6.2374   -0.9819   16.9794 H   0  0  0  0  0  0  0  0  0  0  0  0
    1.8097   -1.8825   15.9307 H   0  0  0  0  0  0  0  0  0  0  0  0
    5.0754    2.1307   13.2538 H   0  0  0  0  0  0  0  0  0  0  0  0
    6.6878    0.9571   15.1798 H   0  0  0  0  0  0  0  0  0  0  0  0
    4.6230    2.3436   11.1296 H   0  0  0  0  0  0  0  0  0  0  0  0
    3.9915    3.8778    9.2677 H   0  0  0  0  0  0  0  0  0  0  0  0
    0.5481    2.4364   12.5954 H   0  0  0  0  0  0  0  0  0  0  0  0
   -1.0762    3.9034   11.4144 H   0  0  0  0  0  0  0  0  0  0  0  0
   -1.0249    3.9406    8.6561 H   0  0  0  0  0  0  0  0  0  0  0  0
   -1.7040    5.3072    9.6099 H   0  0  0  0  0  0  0  0  0  0  0  0
    0.0669    5.9705    7.9046 H   0  0  0  0  0  0  0  0  0  0  0  0
    0.4180    6.4660    9.6032 H   0  0  0  0  0  0  0  0  0  0  0  0
    0.0608   -3.4793   15.5711 H   0  0  0  0  0  0  0  0  0  0  0  0
   -2.2980   -3.8919   14.8953 H   0  0  0  0  0  0  0  0  0  0  0  0
   -0.1287    0.4756   13.8405 H   0  0  0  0  0  0  0  0  0  0  0  0
   -4.5728   -4.0934   13.4147 H   0  0  0  0  0  0  0  0  0  0  0  0
   -5.1176   -2.9512   12.1399 H   0  0  0  0  0  0  0  0  0  0  0  0
   -3.4266   -3.5570   12.1399 H   0  0  0  0  0  0  0  0  0  0  0  0
   -1.6414    2.0556   12.9818 H   0  0  0  0  0  0  0  0  0  0  0  0
   -1.2628    0.9161   11.6458 H   0  0  0  0  0  0  0  0  0  0  0  0
   -2.8179    1.8152   11.6458 H   0  0  0  0  0  0  0  0  0  0  0  0
  1  2  1  0
  1 10  2  0
  2  3  2  0
  3  4  1  0
  3  9  1  0
  4  5  1  0
  4  6  2  0
  5 21  1  0
  6  7  1  0
  7  8  2  0
  7 11  1  0
  8  9  1  0
  9 10  1  0
 11 12  2  0
 11 16  1  0
 12 13  1  0
 13 14  2  0
 14 15  1  0
 14 20  1  0
 15 16  2  0
 15 17  1  0
 17 18  1  0
 18 19  1  0
 19 20  1  0
 21 22  2  0
 21 26  1  0
 22 23  1  0
 23 24  2  0
 24 25  1  0
 24 27  1  0
 25 26  2  0
 25 29  1  0
 27 28  1  0
 29 30  1  0
  1 31  1  0
  5 32  1  0
  8 33  1  0
 10 34  1  0
 12 35  1  0
 13 36  1  0
 16 37  1  0
 17 38  1  0
 18 39  1  0
 18 40  1  0
 19 41  1  0
 19 42  1  0
 22 43  1  0
 23 44  1  0
 26 45  1  0
 28 46  1  0
 28 47  1  0
 28 48  1  0
 30 49  1  0
 30 50  1  0
 30 51  1  0
M  END
>  <s_m_entry_id>  (38) 
1071

>  <MODEL>  (38) 
1

>  <REMARK>  (38) 
 VINA RESULT:   -10.943      0.000      0.000
 INTER + INTRA:         -12.281
 INTER:                 -11.809
 INTRA:                  -0.471
 UNBOUND:                 1.222
  Name = /scratch/kmzp800/tmpa1tdqmql/tmpde6nyvjg.pdb
  6 active torsions:
  status: ('A' for Active; 'I' for Inactive)
    1  A    between atoms: N2_5  and  C4_6
    2  A    between atoms: C7_9  and  O1_10
    3  A    between atoms: O1_10  and  C8_11
    4  A    between atoms: C9_12  and  O2_13
    5  A    between atoms: O2_13  and  C10_14
    6  A    between atoms: C12_17  and  C13_18
                            x       y       z     vdW  Elec       q    Type
                         _______ _______ _______ _____ _____    ______ ____

>  <TORSDO>  (38) 
F 4

>  <grid_id>  (38) 
syk-prepared

>  <grid_path>  (38) 
syk_vina.pdbqt

>  <grid_filename>  (38) 
syk_vina.pdbqt

>  <docking_score>  (38) 
-10.943

>  <compound_name>  (38) 
CHEMBL3265026

>  <index_string>  (38) 
37:0:0

>  <s_m_Source_Path>  (38) 
/projects/mai/users/kmzp800_harry/pmx_colab/docking_jobs/syk/vina_prep/output

>  <s_m_Source_File>  (38) 
ptp1b_docked_conformers.sdf

>  <i_m_Source_File_Index>  (38) 
895

$$$$
CHEMBL3265033
     RDKit          3D

 54 59  0  0  1  0  0  0  0  0999 V2000
    5.8410   -0.4370   16.2820 C   0  0  0  0  0  0  0  0  0  0  0  0
    4.5870   -0.9560   16.2690 N   0  0  0  0  0  0  0  0  0  0  0  0
    3.9750   -0.2780   15.2830 C   0  0  0  0  0  0  0  0  0  0  0  0
    2.6580   -0.4310   14.8570 C   0  0  0  0  0  0  0  0  0  0  0  0
    1.7960   -1.3930   15.4840 N   0  0  0  0  0  0  0  0  0  0  0  0
    2.2290    0.3600   13.8310 N   0  0  0  0  0  0  0  0  0  0  0  0
    3.0440    1.2810   13.2250 C   0  0  0  0  0  0  0  0  0  0  0  0
    4.3710    1.4140   13.6750 C   0  0  0  0  0  0  0  0  0  0  0  0
    4.7720    0.6180   14.6940 N   0  0  0  0  0  0  0  0  0  0  0  0
    5.9630    0.5440   15.3020 C   0  0  0  0  0  0  0  0  0  0  0  0
    2.5270    2.1120   12.1180 C   0  0  0  0  0  0  0  0  0  0  0  0
    3.4240    2.6350   11.1500 C   0  0  0  0  0  0  0  0  0  0  0  0
    2.9610    3.4280   10.0850 C   0  0  0  0  0  0  0  0  0  0  0  0
    1.5950    3.6750   10.0220 C   0  0  0  0  0  0  0  0  0  0  0  0
    0.8390    4.3950    9.1270 C   0  0  0  0  0  0  0  0  0  0  0  0
   -0.4490    4.3030    9.5440 N   0  0  0  0  0  0  0  0  0  0  0  0
   -0.5240    3.5640   10.6470 N   0  0  0  0  0  0  0  0  0  0  0  0
    0.7240    3.1780   10.9430 C   0  0  0  0  0  0  0  0  0  0  0  0
    1.1450    2.3900   12.0090 C   0  0  0  0  0  0  0  0  0  0  0  0
    0.4250   -1.6650   15.1620 C   0  0  0  0  0  0  0  0  0  0  0  0
   -0.3480   -0.7860   14.3910 C   0  0  0  0  0  0  0  0  0  0  0  0
   -1.6800   -1.0870   14.0980 C   0  0  0  0  0  0  0  0  0  0  0  0
   -2.2670   -2.2730   14.5710 C   0  0  0  0  0  0  0  0  0  0  0  0
   -1.4850   -3.1490   15.3440 C   0  0  0  0  0  0  0  0  0  0  0  0
   -0.1530   -2.8470   15.6360 C   0  0  0  0  0  0  0  0  0  0  0  0
   -3.6420   -2.5840   14.2690 N   0  0  0  0  0  0  0  0  0  0  0  0
   -4.0260   -2.8950   12.8810 C   0  0  0  0  0  0  0  0  0  0  0  0
   -5.5260   -3.1350   12.7060 C   0  0  0  0  0  0  0  0  0  0  0  0
   -6.0900   -4.3360   13.8940 S   0  0  0  0  0  6  0  0  0  0  0  0
   -7.5810   -4.2360   14.0500 O   0  0  0  0  0  0  0  0  0  0  0  0
   -5.7190   -5.7200   13.4410 O   0  0  0  0  0  0  0  0  0  0  0  0
   -5.2910   -3.9740   15.4420 C   0  0  0  0  0  0  0  0  0  0  0  0
   -4.6340   -2.6050   15.3510 C   0  0  0  0  0  0  0  0  0  0  0  0
    6.6440   -0.7465   16.9672 H   0  0  0  0  0  0  0  0  0  0  0  0
    2.2069   -1.9482   16.2481 H   0  0  0  0  0  0  0  0  0  0  0  0
    5.0582    2.1393   13.2148 H   0  0  0  0  0  0  0  0  0  0  0  0
    6.8589    1.1396   15.0727 H   0  0  0  0  0  0  0  0  0  0  0  0
    4.4988    2.4164   11.2344 H   0  0  0  0  0  0  0  0  0  0  0  0
    3.6519    3.8361    9.3326 H   0  0  0  0  0  0  0  0  0  0  0  0
    1.2068    4.9395    8.2448 H   0  0  0  0  0  0  0  0  0  0  0  0
   -1.3786    3.3326   11.1733 H   0  0  0  0  0  0  0  0  0  0  0  0
    0.4266    1.9961   12.7430 H   0  0  0  0  0  0  0  0  0  0  0  0
    0.0972    0.1467   14.0143 H   0  0  0  0  0  0  0  0  0  0  0  0
   -2.2754   -0.3890   13.4911 H   0  0  0  0  0  0  0  0  0  0  0  0
   -1.9270   -4.0823   15.7229 H   0  0  0  0  0  0  0  0  0  0  0  0
    0.4451   -3.5431   16.2425 H   0  0  0  0  0  0  0  0  0  0  0  0
   -3.7306   -2.0513   12.2400 H   0  0  0  0  0  0  0  0  0  0  0  0
   -3.5130   -3.8275   12.6029 H   0  0  0  0  0  0  0  0  0  0  0  0
   -6.0669   -2.1894   12.8583 H   0  0  0  0  0  0  0  0  0  0  0  0
   -5.7164   -3.5128   11.6906 H   0  0  0  0  0  0  0  0  0  0  0  0
   -6.0368   -3.9723   16.2506 H   0  0  0  0  0  0  0  0  0  0  0  0
   -4.5295   -4.7386   15.6553 H   0  0  0  0  0  0  0  0  0  0  0  0
   -4.1349   -2.3785   16.3047 H   0  0  0  0  0  0  0  0  0  0  0  0
   -5.4073   -1.8515   15.1406 H   0  0  0  0  0  0  0  0  0  0  0  0
  1  2  1  0
  1 10  2  0
  2  3  2  0
  3  4  1  0
  3  9  1  0
  4  5  1  0
  4  6  2  0
  5 20  1  0
  6  7  1  0
  7  8  2  0
  7 11  1  0
  8  9  1  0
  9 10  1  0
 11 12  2  0
 11 19  1  0
 12 13  1  0
 13 14  2  0
 14 18  1  0
 14 15  1  0
 15 16  2  0
 16 17  1  0
 17 18  1  0
 18 19  2  0
 20 25  1  0
 20 21  2  0
 21 22  1  0
 22 23  2  0
 23 24  1  0
 23 26  1  0
 24 25  2  0
 26 33  1  0
 26 27  1  0
 27 28  1  0
 28 29  1  0
 29 30  2  0
 29 32  1  0
 29 31  2  0
 32 33  1  0
  1 34  1  0
  5 35  1  0
  8 36  1  0
 10 37  1  0
 12 38  1  0
 13 39  1  0
 15 40  1  0
 17 41  1  0
 19 42  1  0
 21 43  1  0
 22 44  1  0
 24 45  1  0
 25 46  1  0
 27 47  1  0
 27 48  1  0
 28 49  1  0
 28 50  1  0
 32 51  1  0
 32 52  1  0
 33 53  1  0
 33 54  1  0
M  END
>  <s_m_entry_id>  (39) 
1099

>  <MODEL>  (39) 
1

>  <REMARK>  (39) 
 VINA RESULT:   -10.337      0.000      0.000
 INTER + INTRA:         -12.337
 INTER:                 -12.005
 INTRA:                  -0.332
 UNBOUND:                -0.187
  Name = /scratch/kmzp800/tmp9vj7s7dj/tmpg5xtey9a.pdb
  3 active torsions:
  status: ('A' for Active; 'I' for Inactive)
    1  A    between atoms: N2_5  and  C4_6
    2  A    between atoms: C7_9  and  N3_10
    3  A    between atoms: C14_21  and  C15_22
                            x       y       z     vdW  Elec       q    Type
                         _______ _______ _______ _____ _____    ______ ____

>  <TORSDO>  (39) 
F 3

>  <grid_id>  (39) 
syk-prepared

>  <grid_path>  (39) 
syk_vina.pdbqt

>  <grid_filename>  (39) 
syk_vina.pdbqt

>  <docking_score>  (39) 
-10.337

>  <compound_name>  (39) 
CHEMBL3265033

>  <index_string>  (39) 
38:0:0

>  <s_m_Source_Path>  (39) 
/projects/mai/users/kmzp800_harry/pmx_colab/docking_jobs/syk/vina_prep/output

>  <s_m_Source_File>  (39) 
ptp1b_docked_conformers.sdf

>  <i_m_Source_File_Index>  (39) 
923

$$$$
CHEMBL3265011
     RDKit          3D

 51 54  0  0  1  0  0  0  0  0999 V2000
    5.4770   -0.5720   16.2600 C   0  0  0  0  0  0  0  0  0  0  0  0
    4.1720   -0.9350   16.1670 N   0  0  0  0  0  0  0  0  0  0  0  0
    3.7180   -0.2160   15.1260 C   0  0  0  0  0  0  0  0  0  0  0  0
    2.4270   -0.2180   14.6100 C   0  0  0  0  0  0  0  0  0  0  0  0
    1.4040   -1.0320   15.2010 N   0  0  0  0  0  0  0  0  0  0  0  0
    2.1690    0.6000   13.5480 N   0  0  0  0  0  0  0  0  0  0  0  0
    3.1320    1.3900   12.9760 C   0  0  0  0  0  0  0  0  0  0  0  0
    4.4300    1.3750   13.5230 C   0  0  0  0  0  0  0  0  0  0  0  0
    4.6580    0.5590   14.5790 N   0  0  0  0  0  0  0  0  0  0  0  0
    5.7860    0.3600   15.2730 C   0  0  0  0  0  0  0  0  0  0  0  0
    2.7670    2.2790   11.8440 C   0  0  0  0  0  0  0  0  0  0  0  0
    1.4480    2.7570   11.7920 C   0  0  0  0  0  0  0  0  0  0  0  0
    1.0180    3.6050   10.7650 C   0  0  0  0  0  0  0  0  0  0  0  0
    1.9220    3.9790    9.7650 C   0  0  0  0  0  0  0  0  0  0  0  0
    3.2340    3.5070    9.7910 C   0  0  0  0  0  0  0  0  0  0  0  0
    3.6670    2.6610   10.8170 C   0  0  0  0  0  0  0  0  0  0  0  0
    5.0700    2.1590   10.7400 C   0  0  0  0  0  0  0  0  0  0  0  0
   -0.3700    4.1010   10.7410 C   0  0  0  0  0  0  0  0  0  0  0  0
   -0.8760    4.6260   11.7690 O   0  0  0  0  0  0  0  0  0  0  0  0
   -1.1540    3.9920    9.5570 N   0  0  0  0  0  0  0  0  0  0  0  0
    0.0750   -1.2350   14.7010 C   0  0  0  0  0  0  0  0  0  0  0  0
   -0.5250   -2.4850   14.8650 C   0  0  0  0  0  0  0  0  0  0  0  0
   -1.8120   -2.7200   14.3780 C   0  0  0  0  0  0  0  0  0  0  0  0
   -2.5180   -1.7050   13.7100 C   0  0  0  0  0  0  0  0  0  0  0  0
   -1.9190   -0.4490   13.5310 C   0  0  0  0  0  0  0  0  0  0  0  0
   -0.6250   -0.2230   14.0280 C   0  0  0  0  0  0  0  0  0  0  0  0
   -3.8080   -1.9240   13.2160 O   0  0  0  0  0  0  0  0  0  0  0  0
   -4.2910   -3.2150   12.8690 C   0  0  0  0  0  0  0  0  0  0  0  0
   -2.6210    0.5560   12.8580 O   0  0  0  0  0  0  0  0  0  0  0  0
   -2.0800    1.2650   11.7520 C   0  0  0  0  0  0  0  0  0  0  0  0
    6.1868   -0.9581   17.0065 H   0  0  0  0  0  0  0  0  0  0  0  0
    1.6490   -1.5208   16.0739 H   0  0  0  0  0  0  0  0  0  0  0  0
    5.2304    2.0043   13.1067 H   0  0  0  0  0  0  0  0  0  0  0  0
    6.7615    0.8374   15.0982 H   0  0  0  0  0  0  0  0  0  0  0  0
    0.7366    2.4583   12.5760 H   0  0  0  0  0  0  0  0  0  0  0  0
    1.5966    4.6481    8.9548 H   0  0  0  0  0  0  0  0  0  0  0  0
    3.9351    3.8030    8.9968 H   0  0  0  0  0  0  0  0  0  0  0  0
    5.4652    2.0176   11.7568 H   0  0  0  0  0  0  0  0  0  0  0  0
    5.0870    1.1990   10.2032 H   0  0  0  0  0  0  0  0  0  0  0  0
    5.6922    2.8903   10.2032 H   0  0  0  0  0  0  0  0  0  0  0  0
   -2.1232    4.3406    9.5472 H   0  0  0  0  0  0  0  0  0  0  0  0
   -0.7518    3.5645    8.7106 H   0  0  0  0  0  0  0  0  0  0  0  0
    0.0197   -3.2894   15.3810 H   0  0  0  0  0  0  0  0  0  0  0  0
   -2.2770   -3.7070   14.5182 H   0  0  0  0  0  0  0  0  0  0  0  0
   -0.1541    0.7611   13.8875 H   0  0  0  0  0  0  0  0  0  0  0  0
   -4.5043   -3.7852   13.7852 H   0  0  0  0  0  0  0  0  0  0  0  0
   -5.2124   -3.1147   12.2766 H   0  0  0  0  0  0  0  0  0  0  0  0
   -3.5300   -3.7442   12.2766 H   0  0  0  0  0  0  0  0  0  0  0  0
   -1.4506    2.0898   12.1176 H   0  0  0  0  0  0  0  0  0  0  0  0
   -1.4712    0.5822   11.1411 H   0  0  0  0  0  0  0  0  0  0  0  0
   -2.8993    1.6719   11.1411 H   0  0  0  0  0  0  0  0  0  0  0  0
  1  2  1  0
  1 10  2  0
  2  3  2  0
  3  4  1  0
  3  9  1  0
  4  5  1  0
  4  6  2  0
  5 21  1  0
  6  7  1  0
  7  8  2  0
  7 11  1  0
  8  9  1  0
  9 10  1  0
 11 12  2  0
 11 16  1  0
 12 13  1  0
 13 14  2  0
 13 18  1  0
 14 15  1  0
 15 16  2  0
 16 17  1  0
 18 19  2  0
 18 20  1  0
 21 22  2  0
 21 26  1  0
 22 23  1  0
 23 24  2  0
 24 25  1  0
 24 27  1  0
 25 26  2  0
 25 29  1  0
 27 28  1  0
 29 30  1  0
  1 31  1  0
  5 32  1  0
  8 33  1  0
 10 34  1  0
 12 35  1  0
 14 36  1  0
 15 37  1  0
 17 38  1  0
 17 39  1  0
 17 40  1  0
 20 41  1  0
 20 42  1  0
 22 43  1  0
 23 44  1  0
 26 45  1  0
 28 46  1  0
 28 47  1  0
 28 48  1  0
 30 49  1  0
 30 50  1  0
 30 51  1  0
M  END
>  <s_m_entry_id>  (40) 
1110

>  <MODEL>  (40) 
1

>  <REMARK>  (40) 
 VINA RESULT:    -9.538      0.000      0.000
 INTER + INTRA:         -12.442
 INTER:                 -12.398
 INTRA:                  -0.044
 UNBOUND:                -0.116
  Name = /scratch/kmzp800/tmpaoq8cq2u/tmp5_l_qmyh.pdb
  8 active torsions:
  status: ('A' for Active; 'I' for Inactive)
    1  A    between atoms: N2_5  and  C4_6
    2  A    between atoms: C7_9  and  O1_10
    3  A    between atoms: O1_10  and  C8_11
    4  A    between atoms: C9_12  and  O2_13
    5  A    between atoms: O2_13  and  C10_14
    6  A    between atoms: C12_17  and  C13_18
    7  A    between atoms: C15_20  and  C16_21
    8  A    between atoms: C19_26  and  C20_27
                            x       y       z     vdW  Elec       q    Type
                         _______ _______ _______ _____ _____    ______ ____

>  <TORSDO>  (40) 
F 5

>  <grid_id>  (40) 
syk-prepared

>  <grid_path>  (40) 
syk_vina.pdbqt

>  <grid_filename>  (40) 
syk_vina.pdbqt

>  <docking_score>  (40) 
-9.538

>  <compound_name>  (40) 
CHEMBL3265011

>  <index_string>  (40) 
39:0:0

>  <s_m_Source_Path>  (40) 
/projects/mai/users/kmzp800_harry/pmx_colab/docking_jobs/syk/vina_prep/output

>  <s_m_Source_File>  (40) 
ptp1b_docked_conformers.sdf

>  <i_m_Source_File_Index>  (40) 
934

$$$$
CHEMBL3265035
     RDKit          3D

 51 55  0  0  1  0  0  0  0  0999 V2000
    1.7450   -1.4590   15.4200 N   0  0  0  0  0  0  0  0  0  0  0  0
    2.5900   -0.4640   14.8240 C   0  0  0  0  0  0  0  0  0  0  0  0
    2.1580    0.3300   13.8010 N   0  0  0  0  0  0  0  0  0  0  0  0
    2.9580    1.2820   13.2240 C   0  0  0  0  0  0  0  0  0  0  0  0
    4.2730    1.4490   13.7040 C   0  0  0  0  0  0  0  0  0  0  0  0
    4.6750    0.6490   14.7190 N   0  0  0  0  0  0  0  0  0  0  0  0
    5.8560    0.6020   15.3500 C   0  0  0  0  0  0  0  0  0  0  0  0
    5.7430   -0.3980   16.3140 C   0  0  0  0  0  0  0  0  0  0  0  0
    4.5050   -0.9510   16.2680 N   0  0  0  0  0  0  0  0  0  0  0  0
    3.8940   -0.2780   15.2790 C   0  0  0  0  0  0  0  0  0  0  0  0
    2.4390    2.1140   12.1190 C   0  0  0  0  0  0  0  0  0  0  0  0
    3.3180    2.6540   11.1440 C   0  0  0  0  0  0  0  0  0  0  0  0
    2.8320    3.4470   10.0880 C   0  0  0  0  0  0  0  0  0  0  0  0
    1.4610    3.6750   10.0430 C   0  0  0  0  0  0  0  0  0  0  0  0
    0.6850    4.3890    9.1610 C   0  0  0  0  0  0  0  0  0  0  0  0
   -0.5970    4.2780    9.5930 N   0  0  0  0  0  0  0  0  0  0  0  0
   -0.6490    3.5320   10.6940 N   0  0  0  0  0  0  0  0  0  0  0  0
    0.6090    3.1620   10.9710 C   0  0  0  0  0  0  0  0  0  0  0  0
    1.0530    2.3740   12.0290 C   0  0  0  0  0  0  0  0  0  0  0  0
   -2.2780   -2.4250   14.4230 C   0  0  0  0  0  0  0  0  0  0  0  0
   -1.7170   -1.2150   13.9850 C   0  0  0  0  0  0  0  0  0  0  0  0
   -0.3980   -0.8860   14.3060 C   0  0  0  0  0  0  0  0  0  0  0  0
    0.3870   -1.7610   15.0700 C   0  0  0  0  0  0  0  0  0  0  0  0
   -0.1680   -2.9660   15.5100 C   0  0  0  0  0  0  0  0  0  0  0  0
   -1.4870   -3.2970   15.1910 C   0  0  0  0  0  0  0  0  0  0  0  0
   -3.6390   -2.7660   14.0940 N   0  0  0  0  0  0  0  0  0  0  0  0
   -4.1630   -2.5360   12.7550 C   0  0  0  0  0  0  0  0  0  0  0  0
   -4.5110   -3.4450   15.0450 C   0  0  0  0  0  0  0  0  0  0  0  0
   -5.3780   -2.4360   15.7750 C   0  0  0  0  0  0  0  0  0  0  0  0
   -4.6990   -1.9690   16.9000 O   0  0  0  0  0  0  0  0  0  0  0  0
    2.1581   -2.0165   16.1812 H   0  0  0  0  0  0  0  0  0  0  0  0
    4.9474    2.2017   13.2696 H   0  0  0  0  0  0  0  0  0  0  0  0
    6.7380    1.2274   15.1477 H   0  0  0  0  0  0  0  0  0  0  0  0
    6.5409   -0.6955   17.0104 H   0  0  0  0  0  0  0  0  0  0  0  0
    4.3964    2.4493   11.2151 H   0  0  0  0  0  0  0  0  0  0  0  0
    3.5083    3.8688    9.3299 H   0  0  0  0  0  0  0  0  0  0  0  0
    1.0349    4.9425    8.2772 H   0  0  0  0  0  0  0  0  0  0  0  0
   -1.4935    3.2863   11.2300 H   0  0  0  0  0  0  0  0  0  0  0  0
    0.3489    1.9675   12.7699 H   0  0  0  0  0  0  0  0  0  0  0  0
   -2.3214   -0.5199   13.3838 H   0  0  0  0  0  0  0  0  0  0  0  0
    0.0278    0.0663   13.9569 H   0  0  0  0  0  0  0  0  0  0  0  0
    0.4384   -3.6588   16.1119 H   0  0  0  0  0  0  0  0  0  0  0  0
   -1.9106   -4.2488   15.5440 H   0  0  0  0  0  0  0  0  0  0  0  0
   -5.1682   -2.0948   12.8254 H   0  0  0  0  0  0  0  0  0  0  0  0
   -3.4973   -1.8473   12.2140 H   0  0  0  0  0  0  0  0  0  0  0  0
   -4.2193   -3.4921   12.2140 H   0  0  0  0  0  0  0  0  0  0  0  0
   -5.1554   -4.1541   14.5047 H   0  0  0  0  0  0  0  0  0  0  0  0
   -3.8921   -3.9830   15.7782 H   0  0  0  0  0  0  0  0  0  0  0  0
   -5.6023   -1.5925   15.1055 H   0  0  0  0  0  0  0  0  0  0  0  0
   -6.3174   -2.9162   16.0862 H   0  0  0  0  0  0  0  0  0  0  0  0
   -5.1587   -2.2852   17.7178 H   0  0  0  0  0  0  0  0  0  0  0  0
  1  2  1  0
  1 23  1  0
  2 10  1  0
  2  3  2  0
  3  4  1  0
  4  5  2  0
  4 11  1  0
  5  6  1  0
  6 10  1  0
  6  7  1  0
  7  8  2  0
  8  9  1  0
  9 10  2  0
 11 12  2  0
 11 19  1  0
 12 13  1  0
 13 14  2  0
 14 18  1  0
 14 15  1  0
 15 16  2  0
 16 17  1  0
 17 18  1  0
 18 19  2  0
 20 25  2  0
 20 21  1  0
 20 26  1  0
 21 22  2  0
 22 23  1  0
 23 24  2  0
 24 25  1  0
 26 28  1  0
 26 27  1  0
 28 29  1  0
 29 30  1  0
  1 31  1  0
  5 32  1  0
  7 33  1  0
  8 34  1  0
 12 35  1  0
 13 36  1  0
 15 37  1  0
 17 38  1  0
 19 39  1  0
 21 40  1  0
 22 41  1  0
 24 42  1  0
 25 43  1  0
 27 44  1  0
 27 45  1  0
 27 46  1  0
 28 47  1  0
 28 48  1  0
 29 49  1  0
 29 50  1  0
 30 51  1  0
M  END
>  <s_m_entry_id>  (41) 
1144

>  <MODEL>  (41) 
1

>  <REMARK>  (41) 
 VINA RESULT:    -9.274      0.000      0.000
 INTER + INTRA:         -12.091
 INTER:                 -11.727
 INTRA:                  -0.364
 UNBOUND:                 0.165
  Name = /scratch/kmzp800/tmpqfrosyt6/tmp7rpdr0zy.pdb
  7 active torsions:
  status: ('A' for Active; 'I' for Inactive)
    1  A    between atoms: O1_1  and  C1_2
    2  A    between atoms: C1_2  and  C2_3
    3  A    between atoms: C2_3  and  N1_4
    4  A    between atoms: N1_4  and  C3_5
    5  A    between atoms: N1_4  and  C22_30
    6  A    between atoms: C6_8  and  N2_9
    7  A    between atoms: C8_12  and  C9_13
                            x       y       z     vdW  Elec       q    Type
                         _______ _______ _______ _____ _____    ______ ____

>  <TORSDO>  (41) 
F 6

>  <grid_id>  (41) 
syk-prepared

>  <grid_path>  (41) 
syk_vina.pdbqt

>  <grid_filename>  (41) 
syk_vina.pdbqt

>  <docking_score>  (41) 
-9.274

>  <compound_name>  (41) 
CHEMBL3265035

>  <index_string>  (41) 
40:0:0

>  <s_m_Source_Path>  (41) 
/projects/mai/users/kmzp800_harry/pmx_colab/docking_jobs/syk/vina_prep/output

>  <s_m_Source_File>  (41) 
ptp1b_docked_conformers.sdf

>  <i_m_Source_File_Index>  (41) 
968

$$$$
CHEMBL3265020
     RDKit          3D

 48 52  0  0  1  0  0  0  0  0999 V2000
    5.5430   -0.6120   16.3020 C   0  0  0  0  0  0  0  0  0  0  0  0
    4.2610   -1.0390   16.1870 N   0  0  0  0  0  0  0  0  0  0  0  0
    3.7710   -0.3000   15.1770 C   0  0  0  0  0  0  0  0  0  0  0  0
    2.4810   -0.3510   14.6550 C   0  0  0  0  0  0  0  0  0  0  0  0
    1.5160   -1.2610   15.1990 N   0  0  0  0  0  0  0  0  0  0  0  0
    2.1810    0.4910   13.6200 N   0  0  0  0  0  0  0  0  0  0  0  0
    3.1030    1.3620   13.0980 C   0  0  0  0  0  0  0  0  0  0  0  0
    4.4000    1.3930   13.6470 C   0  0  0  0  0  0  0  0  0  0  0  0
    4.6690    0.5480   14.6690 N   0  0  0  0  0  0  0  0  0  0  0  0
    5.8040    0.3790   15.3590 C   0  0  0  0  0  0  0  0  0  0  0  0
    2.7340    2.2540   11.9800 C   0  0  0  0  0  0  0  0  0  0  0  0
    3.7210    2.6680   11.0520 C   0  0  0  0  0  0  0  0  0  0  0  0
    3.3960    3.5180    9.9790 C   0  0  0  0  0  0  0  0  0  0  0  0
    2.0730    3.9340    9.8630 C   0  0  0  0  0  0  0  0  0  0  0  0
    1.1150    3.5410   10.7510 C   0  0  0  0  0  0  0  0  0  0  0  0
    1.4030    2.7020   11.8230 C   0  0  0  0  0  0  0  0  0  0  0  0
   -0.0760    4.1120   10.3740 C   0  0  0  0  0  0  0  0  0  0  0  0
    0.2480    4.8460    9.2320 C   0  0  0  0  0  0  0  0  0  0  0  0
    1.5640    4.7370    8.9190 N   0  0  0  0  0  0  0  0  0  0  0  0
    0.1540   -1.4430   14.7860 C   0  0  0  0  0  0  0  0  0  0  0  0
   -0.4860   -2.6430   15.1090 C   0  0  0  0  0  0  0  0  0  0  0  0
   -1.8100   -2.8630   14.7280 C   0  0  0  0  0  0  0  0  0  0  0  0
   -2.5160   -1.8820   14.0130 C   0  0  0  0  0  0  0  0  0  0  0  0
   -1.8830   -0.6760   13.6830 C   0  0  0  0  0  0  0  0  0  0  0  0
   -0.5490   -0.4630   14.0730 C   0  0  0  0  0  0  0  0  0  0  0  0
   -3.8440   -2.0870   13.6220 O   0  0  0  0  0  0  0  0  0  0  0  0
   -4.2580   -3.2130   12.8590 C   0  0  0  0  0  0  0  0  0  0  0  0
   -2.5960    0.2940   12.9710 O   0  0  0  0  0  0  0  0  0  0  0  0
   -1.9640    1.3280   12.2310 C   0  0  0  0  0  0  0  0  0  0  0  0
    6.2708   -0.9929   17.0336 H   0  0  0  0  0  0  0  0  0  0  0  0
    1.8381   -1.8535   15.9775 H   0  0  0  0  0  0  0  0  0  0  0  0
    5.1667    2.0796   13.2587 H   0  0  0  0  0  0  0  0  0  0  0  0
    6.7527    0.9156   15.2107 H   0  0  0  0  0  0  0  0  0  0  0  0
    4.7574    2.3196   11.1722 H   0  0  0  0  0  0  0  0  0  0  0  0
    4.1604    3.8422    9.2575 H   0  0  0  0  0  0  0  0  0  0  0  0
    0.6165    2.3960   12.5286 H   0  0  0  0  0  0  0  0  0  0  0  0
   -1.0580    4.0136   10.8598 H   0  0  0  0  0  0  0  0  0  0  0  0
   -0.4757    5.4408    8.6554 H   0  0  0  0  0  0  0  0  0  0  0  0
    2.0614    5.1747    8.1304 H   0  0  0  0  0  0  0  0  0  0  0  0
    0.0579   -3.4191   15.6674 H   0  0  0  0  0  0  0  0  0  0  0  0
   -2.3038   -3.8106   14.9892 H   0  0  0  0  0  0  0  0  0  0  0  0
   -0.0517    0.4838   13.8154 H   0  0  0  0  0  0  0  0  0  0  0  0
   -4.5568   -4.0258   13.5373 H   0  0  0  0  0  0  0  0  0  0  0  0
   -5.1117   -2.9323   12.2247 H   0  0  0  0  0  0  0  0  0  0  0  0
   -3.4258   -3.5521   12.2247 H   0  0  0  0  0  0  0  0  0  0  0  0
   -1.5189    2.0562   12.9250 H   0  0  0  0  0  0  0  0  0  0  0  0
   -1.1754    0.8960   11.5973 H   0  0  0  0  0  0  0  0  0  0  0  0
   -2.7081    1.8328   11.5973 H   0  0  0  0  0  0  0  0  0  0  0  0
  1  2  1  0
  1 10  2  0
  2  3  2  0
  3  4  1  0
  3  9  1  0
  4  5  1  0
  4  6  2  0
  5 20  1  0
  6  7  1  0
  7  8  2  0
  7 11  1  0
  8  9  1  0
  9 10  1  0
 11 12  2  0
 11 16  1  0
 12 13  1  0
 13 14  2  0
 14 15  1  0
 14 19  1  0
 15 16  2  0
 15 17  1  0
 17 18  2  0
 18 19  1  0
 20 21  2  0
 20 25  1  0
 21 22  1  0
 22 23  2  0
 23 24  1  0
 23 26  1  0
 24 25  2  0
 24 28  1  0
 26 27  1  0
 28 29  1  0
  1 30  1  0
  5 31  1  0
  8 32  1  0
 10 33  1  0
 12 34  1  0
 13 35  1  0
 16 36  1  0
 17 37  1  0
 18 38  1  0
 19 39  1  0
 21 40  1  0
 22 41  1  0
 25 42  1  0
 27 43  1  0
 27 44  1  0
 27 45  1  0
 29 46  1  0
 29 47  1  0
 29 48  1  0
M  END
>  <s_m_entry_id>  (42) 
1173

>  <MODEL>  (42) 
1

>  <REMARK>  (42) 
 VINA RESULT:   -10.066      0.000      0.000
 INTER + INTRA:         -12.194
 INTER:                 -11.730
 INTRA:                  -0.464
 UNBOUND:                 0.225
  Name = /scratch/kmzp800/tmp0jjcmmcp/tmp8hecfvap.pdb
  6 active torsions:
  status: ('A' for Active; 'I' for Inactive)
    1  A    between atoms: N2_5  and  C4_6
    2  A    between atoms: C7_9  and  O1_10
    3  A    between atoms: O1_10  and  C8_11
    4  A    between atoms: C9_12  and  O2_13
    5  A    between atoms: O2_13  and  C10_14
    6  A    between atoms: C12_17  and  C13_18
                            x       y       z     vdW  Elec       q    Type
                         _______ _______ _______ _____ _____    ______ ____

>  <TORSDO>  (42) 
F 4

>  <grid_id>  (42) 
syk-prepared

>  <grid_path>  (42) 
syk_vina.pdbqt

>  <grid_filename>  (42) 
syk_vina.pdbqt

>  <docking_score>  (42) 
-10.066

>  <compound_name>  (42) 
CHEMBL3265020

>  <index_string>  (42) 
41:0:0

>  <s_m_Source_Path>  (42) 
/projects/mai/users/kmzp800_harry/pmx_colab/docking_jobs/syk/vina_prep/output

>  <s_m_Source_File>  (42) 
ptp1b_docked_conformers.sdf

>  <i_m_Source_File_Index>  (42) 
997

$$$$
CHEMBL3265032
     RDKit          3D

 52 57  0  0  1  0  0  0  0  0999 V2000
    5.8330   -0.4330   16.2510 C   0  0  0  0  0  0  0  0  0  0  0  0
    4.5810   -0.9550   16.2350 N   0  0  0  0  0  0  0  0  0  0  0  0
    3.9670   -0.2710   15.2550 C   0  0  0  0  0  0  0  0  0  0  0  0
    2.6490   -0.4240   14.8300 C   0  0  0  0  0  0  0  0  0  0  0  0
    1.7910   -1.3940   15.4500 N   0  0  0  0  0  0  0  0  0  0  0  0
    2.2160    0.3750   13.8120 N   0  0  0  0  0  0  0  0  0  0  0  0
    3.0270    1.3040   13.2130 C   0  0  0  0  0  0  0  0  0  0  0  0
    4.3550    1.4380   13.6640 C   0  0  0  0  0  0  0  0  0  0  0  0
    4.7590    0.6330   14.6740 N   0  0  0  0  0  0  0  0  0  0  0  0
    5.9510    0.5590   15.2800 C   0  0  0  0  0  0  0  0  0  0  0  0
    2.5070    2.1440   12.1160 C   0  0  0  0  0  0  0  0  0  0  0  0
    3.4010    2.6830   11.1540 C   0  0  0  0  0  0  0  0  0  0  0  0
    2.9360    3.4870   10.0980 C   0  0  0  0  0  0  0  0  0  0  0  0
    1.5680    3.7280   10.0380 C   0  0  0  0  0  0  0  0  0  0  0  0
    0.8090    4.4550    9.1520 C   0  0  0  0  0  0  0  0  0  0  0  0
   -0.4790    4.3540    9.5670 N   0  0  0  0  0  0  0  0  0  0  0  0
   -0.5500    3.6020   10.6630 N   0  0  0  0  0  0  0  0  0  0  0  0
    0.7000    3.2180   10.9530 C   0  0  0  0  0  0  0  0  0  0  0  0
    1.1240    2.4190   12.0110 C   0  0  0  0  0  0  0  0  0  0  0  0
    0.4210   -1.6700   15.1260 C   0  0  0  0  0  0  0  0  0  0  0  0
   -0.1650   -2.8350   15.6280 C   0  0  0  0  0  0  0  0  0  0  0  0
   -1.4970   -3.1390   15.3350 C   0  0  0  0  0  0  0  0  0  0  0  0
   -2.2690   -2.2800   14.5370 C   0  0  0  0  0  0  0  0  0  0  0  0
   -1.6740   -1.1120   14.0320 C   0  0  0  0  0  0  0  0  0  0  0  0
   -0.3420   -0.8090   14.3260 C   0  0  0  0  0  0  0  0  0  0  0  0
   -3.6400   -2.5970   14.2280 N   0  0  0  0  0  0  0  0  0  0  0  0
   -4.6810   -2.4640   15.2500 C   0  0  0  0  0  0  0  0  0  0  0  0
   -5.7950   -3.4750   14.9790 C   0  0  0  0  0  0  0  0  0  0  0  0
   -6.2590   -3.3310   13.6590 O   0  0  0  0  0  0  0  0  0  0  0  0
   -5.2340   -3.8110   12.8260 C   0  0  0  0  0  0  0  0  0  0  0  0
   -4.0540   -2.8390   12.8430 C   0  0  0  0  0  0  0  0  0  0  0  0
    6.6380   -0.7473   16.9316 H   0  0  0  0  0  0  0  0  0  0  0  0
    2.2042   -1.9526   16.2103 H   0  0  0  0  0  0  0  0  0  0  0  0
    5.0391    2.1709   13.2113 H   0  0  0  0  0  0  0  0  0  0  0  0
    6.8441    1.1608   15.0560 H   0  0  0  0  0  0  0  0  0  0  0  0
    4.4767    2.4680   11.2360 H   0  0  0  0  0  0  0  0  0  0  0  0
    3.6254    3.9074    9.3511 H   0  0  0  0  0  0  0  0  0  0  0  0
    1.1749    5.0110    8.2762 H   0  0  0  0  0  0  0  0  0  0  0  0
   -1.4030    3.3614   11.1877 H   0  0  0  0  0  0  0  0  0  0  0  0
    0.4071    2.0150   12.7410 H   0  0  0  0  0  0  0  0  0  0  0  0
    0.4257   -3.5167   16.2575 H   0  0  0  0  0  0  0  0  0  0  0  0
   -1.9453   -4.0610   15.7338 H   0  0  0  0  0  0  0  0  0  0  0  0
   -2.2616   -0.4301   13.3998 H   0  0  0  0  0  0  0  0  0  0  0  0
    0.1103    0.1109   13.9271 H   0  0  0  0  0  0  0  0  0  0  0  0
   -4.2466   -2.6546   16.2425 H   0  0  0  0  0  0  0  0  0  0  0  0
   -5.0956   -1.4456   15.2200 H   0  0  0  0  0  0  0  0  0  0  0  0
   -5.4054   -4.4940   15.1199 H   0  0  0  0  0  0  0  0  0  0  0  0
   -6.6257   -3.2956   15.6774 H   0  0  0  0  0  0  0  0  0  0  0  0
   -4.9013   -4.7954   13.1868 H   0  0  0  0  0  0  0  0  0  0  0  0
   -5.6145   -3.9019   11.7979 H   0  0  0  0  0  0  0  0  0  0  0  0
   -4.3554   -1.8883   12.3790 H   0  0  0  0  0  0  0  0  0  0  0  0
   -3.2142   -3.2720   12.2797 H   0  0  0  0  0  0  0  0  0  0  0  0
  1  2  1  0
  1 10  2  0
  2  3  2  0
  3  4  1  0
  3  9  1  0
  4  5  1  0
  4  6  2  0
  5 20  1  0
  6  7  1  0
  7  8  2  0
  7 11  1  0
  8  9  1  0
  9 10  1  0
 11 12  2  0
 11 19  1  0
 12 13  1  0
 13 14  2  0
 14 18  1  0
 14 15  1  0
 15 16  2  0
 16 17  1  0
 17 18  1  0
 18 19  2  0
 20 21  2  0
 20 25  1  0
 21 22  1  0
 22 23  2  0
 23 24  1  0
 23 26  1  0
 24 25  2  0
 26 27  1  0
 26 31  1  0
 27 28  1  0
 28 29  1  0
 29 30  1  0
 30 31  1  0
  1 32  1  0
  5 33  1  0
  8 34  1  0
 10 35  1  0
 12 36  1  0
 13 37  1  0
 15 38  1  0
 17 39  1  0
 19 40  1  0
 21 41  1  0
 22 42  1  0
 24 43  1  0
 25 44  1  0
 27 45  1  0
 27 46  1  0
 28 47  1  0
 28 48  1  0
 30 49  1  0
 30 50  1  0
 31 51  1  0
 31 52  1  0
M  END
>  <s_m_entry_id>  (43) 
1206

>  <MODEL>  (43) 
1

>  <REMARK>  (43) 
 VINA RESULT:    -9.647      0.000      0.000
 INTER + INTRA:         -11.834
 INTER:                 -11.567
 INTRA:                  -0.267
 UNBOUND:                -0.495
  Name = /scratch/kmzp800/tmplg7dgzx4/tmpfouv42pg.pdb
  3 active torsions:
  status: ('A' for Active; 'I' for Inactive)
    1  A    between atoms: N2_5  and  C4_6
    2  A    between atoms: C7_9  and  N3_10
    3  A    between atoms: C14_19  and  C15_20
                            x       y       z     vdW  Elec       q    Type
                         _______ _______ _______ _____ _____    ______ ____

>  <TORSDO>  (43) 
F 3

>  <grid_id>  (43) 
syk-prepared

>  <grid_path>  (43) 
syk_vina.pdbqt

>  <grid_filename>  (43) 
syk_vina.pdbqt

>  <docking_score>  (43) 
-9.647

>  <compound_name>  (43) 
CHEMBL3265032

>  <index_string>  (43) 
42:0:0

>  <s_m_Source_Path>  (43) 
/projects/mai/users/kmzp800_harry/pmx_colab/docking_jobs/syk/vina_prep/output

>  <s_m_Source_File>  (43) 
ptp1b_docked_conformers.sdf

>  <i_m_Source_File_Index>  (43) 
1030

$$$$
CHEMBL3265002
     RDKit          3D

 65 70  0  0  1  0  0  0  0  0999 V2000
   -1.4340   -0.7370   13.7710 C   0  0  0  0  0  0  0  0  0  0  0  0
   -1.7770   -1.9300   14.4230 C   0  0  0  0  0  0  0  0  0  0  0  0
   -0.8160   -2.6380   15.1490 C   0  0  0  0  0  0  0  0  0  0  0  0
    0.4940   -2.1580   15.2290 C   0  0  0  0  0  0  0  0  0  0  0  0
    0.8560   -0.9680   14.5800 C   0  0  0  0  0  0  0  0  0  0  0  0
   -0.1170   -0.2650   13.8540 C   0  0  0  0  0  0  0  0  0  0  0  0
    2.2360   -0.4470   14.6520 C   0  0  0  0  0  0  0  0  0  0  0  0
    2.6400    0.5400   13.7910 N   0  0  0  0  0  0  0  0  0  0  0  0
    3.9030    1.0580   13.8150 C   0  0  0  0  0  0  0  0  0  0  0  0
    4.3130    2.0920   12.9110 N   0  0  0  0  0  0  0  0  0  0  0  0
    4.7880    0.5530   14.7640 C   0  0  0  0  0  0  0  0  0  0  0  0
    6.0650    0.9280   14.9540 N   0  0  0  0  0  0  0  0  0  0  0  0
    6.4800    0.1400   15.9780 C   0  0  0  0  0  0  0  0  0  0  0  0
    5.4450   -0.6980   16.3880 C   0  0  0  0  0  0  0  0  0  0  0  0
    4.3980   -0.4110   15.6030 N   0  0  0  0  0  0  0  0  0  0  0  0
    3.1540   -0.9460   15.5960 C   0  0  0  0  0  0  0  0  0  0  0  0
    3.5650    2.6150   11.8030 C   0  0  0  0  0  0  0  0  0  0  0  0
    4.1490    2.8420   10.5510 C   0  0  0  0  0  0  0  0  0  0  0  0
    3.3940    3.3780    9.5050 C   0  0  0  0  0  0  0  0  0  0  0  0
    2.0410    3.6970    9.6980 C   0  0  0  0  0  0  0  0  0  0  0  0
    1.4480    3.4710   10.9500 C   0  0  0  0  0  0  0  0  0  0  0  0
    2.2180    2.9340   11.9950 C   0  0  0  0  0  0  0  0  0  0  0  0
    1.2690    4.2420    8.6660 O   0  0  0  0  0  0  0  0  0  0  0  0
    0.2300    3.5200    8.0170 C   0  0  0  0  0  0  0  0  0  0  0  0
    0.0980    3.7890   11.1340 O   0  0  0  0  0  0  0  0  0  0  0  0
   -0.3680    5.1250   11.2540 C   0  0  0  0  0  0  0  0  0  0  0  0
   -2.1790    1.3860   12.6500 N   0  0  0  0  0  0  0  0  0  0  0  0
   -2.4440    0.0230   13.0130 C   0  0  0  0  0  0  0  0  0  0  0  0
   -3.5340   -0.5270   12.6980 O   0  0  0  0  0  0  0  0  0  0  0  0
   -4.7300    4.0360   10.5270 C   0  0  0  0  0  0  0  0  0  0  0  0
   -4.1960    2.9160    9.8760 C   0  0  0  0  0  0  0  0  0  0  0  0
   -3.3550    2.0360   10.5650 C   0  0  0  0  0  0  0  0  0  0  0  0
   -3.0390    2.2650   11.9120 C   0  0  0  0  0  0  0  0  0  0  0  0
   -3.5720    3.3830   12.5590 C   0  0  0  0  0  0  0  0  0  0  0  0
   -4.4120    4.2640   11.8730 C   0  0  0  0  0  0  0  0  0  0  0  0
   -6.9770    5.7370    8.3630 C   0  0  0  0  0  0  0  0  0  0  0  0
   -6.3100    4.6200    8.7040 N   0  0  0  0  0  0  0  0  0  0  0  0
   -5.6130    4.9640    9.8050 C   0  0  0  0  0  0  0  0  0  0  0  0
   -5.8070    6.2440   10.1770 N   0  0  0  0  0  0  0  0  0  0  0  0
   -6.6680    6.7340    9.2670 C   0  0  0  0  0  0  0  0  0  0  0  0
   -2.8074   -2.3102   14.3626 H   0  0  0  0  0  0  0  0  0  0  0  0
   -1.0906   -3.5737   15.6579 H   0  0  0  0  0  0  0  0  0  0  0  0
    1.2464   -2.7170   15.8047 H   0  0  0  0  0  0  0  0  0  0  0  0
    0.1575    0.6695   13.3429 H   0  0  0  0  0  0  0  0  0  0  0  0
    5.2431    2.5035   13.0737 H   0  0  0  0  0  0  0  0  0  0  0  0
    7.4871    0.1599   16.4201 H   0  0  0  0  0  0  0  0  0  0  0  0
    5.4805   -1.4453   17.1944 H   0  0  0  0  0  0  0  0  0  0  0  0
    2.8711   -1.7410   16.3017 H   0  0  0  0  0  0  0  0  0  0  0  0
    5.2091    2.5967   10.3899 H   0  0  0  0  0  0  0  0  0  0  0  0
    3.8624    3.5510    8.5249 H   0  0  0  0  0  0  0  0  0  0  0  0
    1.7545    2.7623   12.9777 H   0  0  0  0  0  0  0  0  0  0  0  0
   -0.4266    3.0637    8.7724 H   0  0  0  0  0  0  0  0  0  0  0  0
   -0.3561    4.2064    7.3883 H   0  0  0  0  0  0  0  0  0  0  0  0
    0.6690    2.7313    7.3883 H   0  0  0  0  0  0  0  0  0  0  0  0
   -0.4595    5.3872   12.3184 H   0  0  0  0  0  0  0  0  0  0  0  0
    0.3453    5.8071   10.7683 H   0  0  0  0  0  0  0  0  0  0  0  0
   -1.3508    5.2156   10.7683 H   0  0  0  0  0  0  0  0  0  0  0  0
   -1.2741    1.7746   12.9519 H   0  0  0  0  0  0  0  0  0  0  0  0
   -4.4390    2.7282    8.8197 H   0  0  0  0  0  0  0  0  0  0  0  0
   -2.9390    1.1591   10.0472 H   0  0  0  0  0  0  0  0  0  0  0  0
   -3.3287    3.5707   13.6152 H   0  0  0  0  0  0  0  0  0  0  0  0
   -4.8259    5.1411   12.3920 H   0  0  0  0  0  0  0  0  0  0  0  0
   -7.6572    5.8395    7.5046 H   0  0  0  0  0  0  0  0  0  0  0  0
   -5.3894    6.7373   10.9790 H   0  0  0  0  0  0  0  0  0  0  0  0
   -7.0616    7.7610    9.2464 H   0  0  0  0  0  0  0  0  0  0  0  0
  1  6  1  0
  1  2  2  0
  1 28  1  0
  2  3  1  0
  3  4  2  0
  4  5  1  0
  5  7  1  0
  5  6  2  0
  7 16  2  0
  7  8  1  0
  8  9  2  0
  9 11  1  0
  9 10  1  0
 10 17  1  0
 11 12  2  0
 11 15  1  0
 12 13  1  0
 13 14  2  0
 14 15  1  0
 15 16  1  0
 17 22  1  0
 17 18  2  0
 18 19  1  0
 19 20  2  0
 20 21  1  0
 20 23  1  0
 21 25  1  0
 21 22  2  0
 23 24  1  0
 25 26  1  0
 27 28  1  0
 27 33  1  0
 28 29  2  0
 30 35  1  0
 30 31  2  0
 30 38  1  0
 31 32  1  0
 32 33  2  0
 33 34  1  0
 34 35  2  0
 36 37  1  0
 36 40  2  0
 37 38  2  0
 38 39  1  0
 39 40  1  0
  2 41  1  0
  3 42  1  0
  4 43  1  0
  6 44  1  0
 10 45  1  0
 13 46  1  0
 14 47  1  0
 16 48  1  0
 18 49  1  0
 19 50  1  0
 22 51  1  0
 24 52  1  0
 24 53  1  0
 24 54  1  0
 26 55  1  0
 26 56  1  0
 26 57  1  0
 27 58  1  0
 31 59  1  0
 32 60  1  0
 34 61  1  0
 35 62  1  0
 36 63  1  0
 39 64  1  0
 40 65  1  0
M  END
>  <s_m_entry_id>  (44) 
1229

>  <MODEL>  (44) 
2

>  <REMARK>  (44) 
 VINA RESULT:   -11.823      3.394      7.809
 INTER + INTRA:         -12.855
 INTER:                 -11.674
 INTRA:                  -1.181
 UNBOUND:                 3.807
  Name = /scratch/kmzp800/tmpdylzias9/tmphe07asir.pdb
  9 active torsions:
  status: ('A' for Active; 'I' for Inactive)
    1  A    between atoms: C2_3  and  C3_4
    2  A    between atoms: C6_7  and  N2_8
    3  A    between atoms: C7_9  and  C8_11
    4  A    between atoms: C12_15  and  C13_16
    5  A    between atoms: N4_19  and  C15_20
    6  A    between atoms: C18_23  and  O2_24
    7  A    between atoms: O2_24  and  C19_25
    8  A    between atoms: C20_26  and  O3_27
    9  A    between atoms: O3_27  and  C21_28
                            x       y       z     vdW  Elec       q    Type
                         _______ _______ _______ _____ _____    ______ ____

>  <TORSDO>  (44) 
F 7

>  <grid_id>  (44) 
syk-prepared

>  <grid_path>  (44) 
syk_vina.pdbqt

>  <grid_filename>  (44) 
syk_vina.pdbqt

>  <docking_score>  (44) 
-11.823

>  <compound_name>  (44) 
CHEMBL3265002

>  <index_string>  (44) 
43:0:1

>  <s_m_Source_Path>  (44) 
/projects/mai/users/kmzp800_harry/pmx_colab/docking_jobs/syk/vina_prep/output

>  <s_m_Source_File>  (44) 
ptp1b_docked_conformers.sdf

>  <i_m_Source_File_Index>  (44) 
1053

$$$$
