CHEMBL3265037
     RDKit          3D

 56 61  0  0  1  0  0  0  0  0999 V2000
    5.8210   -0.4610   16.3500 C   0  0  0  0  0  0  0  0  0  0  0  0
    4.5760   -0.9950   16.2640 N   0  0  0  0  0  0  0  0  0  0  0  0
    4.0040   -0.3010   15.2650 C   0  0  0  0  0  0  0  0  0  0  0  0
    2.7100   -0.4580   14.7750 C   0  0  0  0  0  0  0  0  0  0  0  0
    1.8390   -1.4560   15.3260 N   0  0  0  0  0  0  0  0  0  0  0  0
    2.3200    0.3470   13.7420 N   0  0  0  0  0  0  0  0  0  0  0  0
    3.1530    1.2910   13.1980 C   0  0  0  0  0  0  0  0  0  0  0  0
    4.4540    1.4330   13.7190 C   0  0  0  0  0  0  0  0  0  0  0  0
    4.8150    0.6190   14.7380 N   0  0  0  0  0  0  0  0  0  0  0  0
    5.9760    0.5460   15.4010 C   0  0  0  0  0  0  0  0  0  0  0  0
    2.6870    2.1350   12.0790 C   0  0  0  0  0  0  0  0  0  0  0  0
    3.6150    2.6020   11.1130 C   0  0  0  0  0  0  0  0  0  0  0  0
    3.2020    3.4080   10.0370 C   0  0  0  0  0  0  0  0  0  0  0  0
    1.8510    3.7250    9.9630 C   0  0  0  0  0  0  0  0  0  0  0  0
    1.1390    4.4760    9.0570 C   0  0  0  0  0  0  0  0  0  0  0  0
   -0.1540    4.4560    9.4670 N   0  0  0  0  0  0  0  0  0  0  0  0
   -0.2750    3.7330   10.5770 N   0  0  0  0  0  0  0  0  0  0  0  0
    0.9500    3.2840   10.8830 C   0  0  0  0  0  0  0  0  0  0  0  0
    1.3230    2.4860   11.9600 C   0  0  0  0  0  0  0  0  0  0  0  0
    0.4530   -1.6580   15.0230 C   0  0  0  0  0  0  0  0  0  0  0  0
   -0.1560   -2.8450   15.4280 C   0  0  0  0  0  0  0  0  0  0  0  0
   -1.5070   -3.0700   15.1690 C   0  0  0  0  0  0  0  0  0  0  0  0
   -2.2870   -2.1090   14.5040 C   0  0  0  0  0  0  0  0  0  0  0  0
   -1.6740   -0.9030   14.0850 C   0  0  0  0  0  0  0  0  0  0  0  0
   -0.3100   -0.6920   14.3550 C   0  0  0  0  0  0  0  0  0  0  0  0
   -3.6850   -2.3830   14.2730 N   0  0  0  0  0  0  0  0  0  0  0  0
   -4.6930   -2.2080   15.3190 C   0  0  0  0  0  0  0  0  0  0  0  0
   -5.7450   -3.3110   15.2020 C   0  0  0  0  0  0  0  0  0  0  0  0
   -6.2700   -3.3320   13.8980 O   0  0  0  0  0  0  0  0  0  0  0  0
   -5.2480   -3.8210   13.0650 C   0  0  0  0  0  0  0  0  0  0  0  0
   -4.1380   -2.7780   12.9370 C   0  0  0  0  0  0  0  0  0  0  0  0
   -2.4130    0.0630   13.3920 O   0  0  0  0  0  0  0  0  0  0  0  0
   -1.8740    0.8370   12.3300 C   0  0  0  0  0  0  0  0  0  0  0  0
    6.5946   -0.7776   17.0651 H   0  0  0  0  0  0  0  0  0  0  0  0
    2.2557   -2.0980   16.0152 H   0  0  0  0  0  0  0  0  0  0  0  0
    5.1520    2.1793   13.3118 H   0  0  0  0  0  0  0  0  0  0  0  0
    6.8731    1.1592   15.2301 H   0  0  0  0  0  0  0  0  0  0  0  0
    4.6764    2.3289   11.2072 H   0  0  0  0  0  0  0  0  0  0  0  0
    3.9182    3.7721    9.2857 H   0  0  0  0  0  0  0  0  0  0  0  0
    1.5399    4.9923    8.1723 H   0  0  0  0  0  0  0  0  0  0  0  0
   -1.1434    3.5529   11.1007 H   0  0  0  0  0  0  0  0  0  0  0  0
    0.5810    2.1397   12.6945 H   0  0  0  0  0  0  0  0  0  0  0  0
    0.4337   -3.6092   15.9555 H   0  0  0  0  0  0  0  0  0  0  0  0
   -1.9698   -4.0148   15.4903 H   0  0  0  0  0  0  0  0  0  0  0  0
    0.1655    0.2473   14.0362 H   0  0  0  0  0  0  0  0  0  0  0  0
   -4.2108   -2.2643   16.3061 H   0  0  0  0  0  0  0  0  0  0  0  0
   -5.1760   -1.2266   15.2025 H   0  0  0  0  0  0  0  0  0  0  0  0
   -5.2811   -4.2832   15.4246 H   0  0  0  0  0  0  0  0  0  0  0  0
   -6.5573   -3.1155   15.9175 H   0  0  0  0  0  0  0  0  0  0  0  0
   -4.8338   -4.7432   13.4987 H   0  0  0  0  0  0  0  0  0  0  0  0
   -5.6630   -4.0327   12.0685 H   0  0  0  0  0  0  0  0  0  0  0  0
   -4.5229   -1.8959   12.4043 H   0  0  0  0  0  0  0  0  0  0  0  0
   -3.2949   -3.2058   12.3747 H   0  0  0  0  0  0  0  0  0  0  0  0
   -1.2917    1.6731   12.7445 H   0  0  0  0  0  0  0  0  0  0  0  0
   -1.2194    0.2054   11.7115 H   0  0  0  0  0  0  0  0  0  0  0  0
   -2.6935    1.2319   11.7115 H   0  0  0  0  0  0  0  0  0  0  0  0
  1  2  1  0
  1 10  2  0
  2  3  2  0
  3  4  1  0
  3  9  1  0
  4  5  1  0
  4  6  2  0
  5 20  1  0
  6  7  1  0
  7  8  2  0
  7 11  1  0
  8  9  1  0
  9 10  1  0
 11 12  2  0
 11 19  1  0
 12 13  1  0
 13 14  2  0
 14 18  1  0
 14 15  1  0
 15 16  2  0
 16 17  1  0
 17 18  1  0
 18 19  2  0
 20 21  2  0
 20 25  1  0
 21 22  1  0
 22 23  2  0
 23 24  1  0
 23 26  1  0
 24 25  2  0
 24 32  1  0
 26 27  1  0
 26 31  1  0
 27 28  1  0
 28 29  1  0
 29 30  1  0
 30 31  1  0
 32 33  1  0
  1 34  1  0
  5 35  1  0
  8 36  1  0
 10 37  1  0
 12 38  1  0
 13 39  1  0
 15 40  1  0
 17 41  1  0
 19 42  1  0
 21 43  1  0
 22 44  1  0
 25 45  1  0
 27 46  1  0
 27 47  1  0
 28 48  1  0
 28 49  1  0
 30 50  1  0
 30 51  1  0
 31 52  1  0
 31 53  1  0
 33 54  1  0
 33 55  1  0
 33 56  1  0
M  END
>  <s_m_entry_id>  (1) 
1

>  <MODEL>  (1) 
1

>  <REMARK>  (1) 
 VINA RESULT:    -9.807      0.000      0.000
 INTER + INTRA:         -12.658
 INTER:                 -12.101
 INTRA:                  -0.557
 UNBOUND:                -0.557
  Name = /scratch/kmzp800/tmpda0cc7b8/tmpfbb5zi_j.pdb
  5 active torsions:
  status: ('A' for Active; 'I' for Inactive)
    1  A    between atoms: N2_5  and  C4_6
    2  A    between atoms: C7_9  and  N3_10
    3  A    between atoms: C12_16  and  O2_17
    4  A    between atoms: O2_17  and  C13_18
    5  A    between atoms: C15_21  and  C16_22
                            x       y       z     vdW  Elec       q    Type
                         _______ _______ _______ _____ _____    ______ ____

>  <TORSDO>  (1) 
F 4

>  <grid_id>  (1) 
syk-prepared

>  <grid_path>  (1) 
syk_vina.pdbqt

>  <grid_filename>  (1) 
syk_vina.pdbqt

>  <docking_score>  (1) 
-9.807

>  <compound_name>  (1) 
CHEMBL3265037

>  <index_string>  (1) 
0:0:0

>  <s_m_Source_Path>  (1) 
/projects/mai/users/kmzp800_harry/pmx_colab/docking_jobs/syk/vina_prep/output

>  <s_m_Source_File>  (1) 
ptp1b_docked_conformers.sdf

>  <i_m_Source_File_Index>  (1) 
1

$$$$
CHEMBL3259820
     RDKit          3D

 48 51  0  0  1  0  0  0  0  0999 V2000
    6.1910    0.1230   15.8300 C   0  0  0  0  0  0  0  0  0  0  0  0
    5.8030    0.9170   14.8010 N   0  0  0  0  0  0  0  0  0  0  0  0
    4.5250    0.5590   14.5890 C   0  0  0  0  0  0  0  0  0  0  0  0
    3.6600    1.0790   13.6310 C   0  0  0  0  0  0  0  0  0  0  0  0
    4.1010    2.1100   12.7340 N   0  0  0  0  0  0  0  0  0  0  0  0
    2.3930    0.5740   13.5800 N   0  0  0  0  0  0  0  0  0  0  0  0
    1.9630   -0.4120   14.4310 C   0  0  0  0  0  0  0  0  0  0  0  0
    2.8590   -0.9200   15.3920 C   0  0  0  0  0  0  0  0  0  0  0  0
    4.1090   -0.4010   15.4200 N   0  0  0  0  0  0  0  0  0  0  0  0
    5.1390   -0.7020   16.2210 C   0  0  0  0  0  0  0  0  0  0  0  0
    3.3340    2.7440   11.7010 C   0  0  0  0  0  0  0  0  0  0  0  0
    3.8980    3.0970   10.4670 C   0  0  0  0  0  0  0  0  0  0  0  0
    3.1190    3.7130    9.4870 C   0  0  0  0  0  0  0  0  0  0  0  0
    1.7620    3.9860    9.7230 C   0  0  0  0  0  0  0  0  0  0  0  0
    1.1910    3.6360   10.9560 C   0  0  0  0  0  0  0  0  0  0  0  0
    1.9840    3.0150   11.9360 C   0  0  0  0  0  0  0  0  0  0  0  0
    0.9660    4.6030    8.7510 O   0  0  0  0  0  0  0  0  0  0  0  0
    0.7070    6.0000    8.7420 C   0  0  0  0  0  0  0  0  0  0  0  0
   -0.1620    3.9100   11.1850 O   0  0  0  0  0  0  0  0  0  0  0  0
   -1.0600    2.9490   11.7230 C   0  0  0  0  0  0  0  0  0  0  0  0
    0.5790   -0.9230   14.3330 C   0  0  0  0  0  0  0  0  0  0  0  0
   -0.3570   -0.2630   13.5240 C   0  0  0  0  0  0  0  0  0  0  0  0
   -1.6670   -0.7390   13.4240 C   0  0  0  0  0  0  0  0  0  0  0  0
   -2.0630   -1.8820   14.1320 C   0  0  0  0  0  0  0  0  0  0  0  0
   -1.1280   -2.5420   14.9420 C   0  0  0  0  0  0  0  0  0  0  0  0
    0.1820   -2.0660   15.0420 C   0  0  0  0  0  0  0  0  0  0  0  0
   -3.4440   -2.3820   14.0260 C   0  0  0  0  0  0  0  0  0  0  0  0
   -4.1220   -2.6020   15.0660 O   0  0  0  0  0  0  0  0  0  0  0  0
   -4.0300   -2.6220   12.7500 N   0  0  0  0  0  0  0  0  0  0  0  0
    7.1907    0.1296   16.2888 H   0  0  0  0  0  0  0  0  0  0  0  0
    5.0741    2.4290   12.8444 H   0  0  0  0  0  0  0  0  0  0  0  0
    2.5540   -1.7098   16.0943 H   0  0  0  0  0  0  0  0  0  0  0  0
    5.1518   -1.4509   17.0266 H   0  0  0  0  0  0  0  0  0  0  0  0
    4.9598    2.8873   10.2705 H   0  0  0  0  0  0  0  0  0  0  0  0
    3.5712    3.9868    8.5224 H   0  0  0  0  0  0  0  0  0  0  0  0
    1.5354    2.7385   12.9015 H   0  0  0  0  0  0  0  0  0  0  0  0
    0.6390    6.3670    9.7767 H   0  0  0  0  0  0  0  0  0  0  0  0
    1.5239    6.5210    8.2211 H   0  0  0  0  0  0  0  0  0  0  0  0
   -0.2423    6.1936    8.2211 H   0  0  0  0  0  0  0  0  0  0  0  0
   -1.0236    2.9879   12.8217 H   0  0  0  0  0  0  0  0  0  0  0  0
   -2.0820    3.1708   11.3819 H   0  0  0  0  0  0  0  0  0  0  0  0
   -0.7695    1.9444   11.3819 H   0  0  0  0  0  0  0  0  0  0  0  0
   -0.0580    0.6355   12.9643 H   0  0  0  0  0  0  0  0  0  0  0  0
   -2.3922   -0.2132   12.7855 H   0  0  0  0  0  0  0  0  0  0  0  0
   -1.4275   -3.4400   15.5022 H   0  0  0  0  0  0  0  0  0  0  0  0
    0.9068   -2.5914   15.6812 H   0  0  0  0  0  0  0  0  0  0  0  0
   -4.9966   -2.9718   12.6848 H   0  0  0  0  0  0  0  0  0  0  0  0
   -3.4871   -2.4458   11.8926 H   0  0  0  0  0  0  0  0  0  0  0  0
  1 10  2  0
  1  2  1  0
  2  3  2  0
  3  9  1  0
  3  4  1  0
  4  5  1  0
  4  6  2  0
  5 11  1  0
  6  7  1  0
  7  8  2  0
  7 21  1  0
  8  9  1  0
  9 10  1  0
 11 16  1  0
 11 12  2  0
 12 13  1  0
 13 14  2  0
 14 15  1  0
 14 17  1  0
 15 19  1  0
 15 16  2  0
 17 18  1  0
 19 20  1  0
 21 26  1  0
 21 22  2  0
 22 23  1  0
 23 24  2  0
 24 25  1  0
 24 27  1  0
 25 26  2  0
 27 28  2  0
 27 29  1  0
  1 30  1  0
  5 31  1  0
  8 32  1  0
 10 33  1  0
 12 34  1  0
 13 35  1  0
 16 36  1  0
 18 37  1  0
 18 38  1  0
 18 39  1  0
 20 40  1  0
 20 41  1  0
 20 42  1  0
 22 43  1  0
 23 44  1  0
 25 45  1  0
 26 46  1  0
 29 47  1  0
 29 48  1  0
M  END
>  <s_m_entry_id>  (2) 
2

>  <MODEL>  (2) 
1

>  <REMARK>  (2) 
 VINA RESULT:    -8.874      0.000      0.000
 INTER + INTRA:         -11.909
 INTER:                 -11.468
 INTRA:                  -0.441
 UNBOUND:                -0.441
  Name = /scratch/kmzp800/tmpqx_nxik2/tmp5zsafzpc.pdb
  7 active torsions:
  status: ('A' for Active; 'I' for Inactive)
    1  A    between atoms: N2_5  and  C4_6
    2  A    between atoms: C7_9  and  O1_10
    3  A    between atoms: O1_10  and  C8_11
    4  A    between atoms: C9_12  and  O2_13
    5  A    between atoms: O2_13  and  C10_14
    6  A    between atoms: C12_17  and  C13_18
    7  A    between atoms: C16_21  and  C17_22
                            x       y       z     vdW  Elec       q    Type
                         _______ _______ _______ _____ _____    ______ ____

>  <TORSDO>  (2) 
F 5

>  <grid_id>  (2) 
syk-prepared

>  <grid_path>  (2) 
syk_vina.pdbqt

>  <grid_filename>  (2) 
syk_vina.pdbqt

>  <docking_score>  (2) 
-8.874

>  <compound_name>  (2) 
CHEMBL3259820

>  <index_string>  (2) 
1:0:0

>  <s_m_Source_Path>  (2) 
/projects/mai/users/kmzp800_harry/pmx_colab/docking_jobs/syk/vina_prep/output

>  <s_m_Source_File>  (2) 
ptp1b_docked_conformers.sdf

>  <i_m_Source_File_Index>  (2) 
2

$$$$
CHEMBL3265021
     RDKit          3D

 47 51  0  0  1  0  0  0  0  0999 V2000
    5.6030   -0.5850   16.3630 C   0  0  0  0  0  0  0  0  0  0  0  0
    4.3270   -1.0310   16.2400 N   0  0  0  0  0  0  0  0  0  0  0  0
    3.8340   -0.3030   15.2230 C   0  0  0  0  0  0  0  0  0  0  0  0
    2.5480   -0.3740   14.6930 C   0  0  0  0  0  0  0  0  0  0  0  0
    1.5880   -1.2960   15.2300 N   0  0  0  0  0  0  0  0  0  0  0  0
    2.2450    0.4600   13.6540 N   0  0  0  0  0  0  0  0  0  0  0  0
    3.1560    1.3430   13.1350 C   0  0  0  0  0  0  0  0  0  0  0  0
    4.4480    1.3940   13.6920 C   0  0  0  0  0  0  0  0  0  0  0  0
    4.7220    0.5580   14.7200 N   0  0  0  0  0  0  0  0  0  0  0  0
    5.8570    0.4070   15.4170 C   0  0  0  0  0  0  0  0  0  0  0  0
    2.7740    2.2220   12.0110 C   0  0  0  0  0  0  0  0  0  0  0  0
    3.7490    2.6090   11.0550 C   0  0  0  0  0  0  0  0  0  0  0  0
    3.4160    3.4450    9.9730 C   0  0  0  0  0  0  0  0  0  0  0  0
    2.0960    3.8720    9.8830 C   0  0  0  0  0  0  0  0  0  0  0  0
    1.1520    3.5070   10.7930 C   0  0  0  0  0  0  0  0  0  0  0  0
   -0.0200    4.1050   10.3940 C   0  0  0  0  0  0  0  0  0  0  0  0
    0.2650    4.8030    9.2640 N   0  0  0  0  0  0  0  0  0  0  0  0
    1.5500    4.6650    8.9500 N   0  0  0  0  0  0  0  0  0  0  0  0
    1.4440    2.6830   11.8740 C   0  0  0  0  0  0  0  0  0  0  0  0
    0.2350   -1.4860   14.7950 C   0  0  0  0  0  0  0  0  0  0  0  0
   -0.4820   -2.6550   15.0800 C   0  0  0  0  0  0  0  0  0  0  0  0
   -1.7980   -2.8030   14.6390 C   0  0  0  0  0  0  0  0  0  0  0  0
   -2.4190   -1.7810   13.9040 C   0  0  0  0  0  0  0  0  0  0  0  0
   -1.7080   -0.6070   13.6140 C   0  0  0  0  0  0  0  0  0  0  0  0
   -0.3840   -0.4690   14.0630 C   0  0  0  0  0  0  0  0  0  0  0  0
   -3.7370   -1.9110   13.4530 O   0  0  0  0  0  0  0  0  0  0  0  0
   -4.2250   -3.0930   12.8330 C   0  0  0  0  0  0  0  0  0  0  0  0
   -2.3330    0.4080   12.8810 O   0  0  0  0  0  0  0  0  0  0  0  0
   -1.7160    1.0490   11.7730 C   0  0  0  0  0  0  0  0  0  0  0  0
    6.3306   -0.9527   17.1015 H   0  0  0  0  0  0  0  0  0  0  0  0
    1.9055   -1.8852   16.0129 H   0  0  0  0  0  0  0  0  0  0  0  0
    5.2079    2.0889   13.3051 H   0  0  0  0  0  0  0  0  0  0  0  0
    6.7993    0.9555   15.2717 H   0  0  0  0  0  0  0  0  0  0  0  0
    4.7830    2.2492   11.1616 H   0  0  0  0  0  0  0  0  0  0  0  0
    4.1684    3.7478    9.2299 H   0  0  0  0  0  0  0  0  0  0  0  0
   -0.9978    4.0324   10.8926 H   0  0  0  0  0  0  0  0  0  0  0  0
    2.0333    5.0867    8.1441 H   0  0  0  0  0  0  0  0  0  0  0  0
    0.6666    2.3991   12.5986 H   0  0  0  0  0  0  0  0  0  0  0  0
   -0.0047   -3.4620   15.6553 H   0  0  0  0  0  0  0  0  0  0  0  0
   -2.3514   -3.7255   14.8687 H   0  0  0  0  0  0  0  0  0  0  0  0
    0.1730    0.4519   13.8354 H   0  0  0  0  0  0  0  0  0  0  0  0
   -4.5236   -3.8162   13.6062 H   0  0  0  0  0  0  0  0  0  0  0  0
   -5.0948   -2.8461   12.2064 H   0  0  0  0  0  0  0  0  0  0  0  0
   -3.4344   -3.5316   12.2064 H   0  0  0  0  0  0  0  0  0  0  0  0
   -0.9960    1.7970   12.1364 H   0  0  0  0  0  0  0  0  0  0  0  0
   -1.1901    0.3002   11.1624 H   0  0  0  0  0  0  0  0  0  0  0  0
   -2.4843    1.5460   11.1624 H   0  0  0  0  0  0  0  0  0  0  0  0
  1  2  1  0
  1 10  2  0
  2  3  2  0
  3  4  1  0
  3  9  1  0
  4  5  1  0
  4  6  2  0
  5 20  1  0
  6  7  1  0
  7  8  2  0
  7 11  1  0
  8  9  1  0
  9 10  1  0
 11 12  2  0
 11 19  1  0
 12 13  1  0
 13 14  2  0
 14 15  1  0
 14 18  1  0
 15 19  2  0
 15 16  1  0
 16 17  2  0
 17 18  1  0
 20 21  2  0
 20 25  1  0
 21 22  1  0
 22 23  2  0
 23 24  1  0
 23 26  1  0
 24 25  2  0
 24 28  1  0
 26 27  1  0
 28 29  1  0
  1 30  1  0
  5 31  1  0
  8 32  1  0
 10 33  1  0
 12 34  1  0
 13 35  1  0
 16 36  1  0
 18 37  1  0
 19 38  1  0
 21 39  1  0
 22 40  1  0
 25 41  1  0
 27 42  1  0
 27 43  1  0
 27 44  1  0
 29 45  1  0
 29 46  1  0
 29 47  1  0
M  END
>  <s_m_entry_id>  (3) 
3

>  <MODEL>  (3) 
1

>  <REMARK>  (3) 
 VINA RESULT:    -9.455      0.000      0.000
 INTER + INTRA:         -11.991
 INTER:                 -11.666
 INTRA:                  -0.324
 UNBOUND:                -0.324
  Name = /scratch/kmzp800/tmptjf7y_mo/tmpehzlahfj.pdb
  6 active torsions:
  status: ('A' for Active; 'I' for Inactive)
    1  A    between atoms: N2_5  and  C4_6
    2  A    between atoms: C7_9  and  O1_10
    3  A    between atoms: O1_10  and  C8_11
    4  A    between atoms: C9_12  and  O2_13
    5  A    between atoms: O2_13  and  C10_14
    6  A    between atoms: C12_17  and  C13_18
                            x       y       z     vdW  Elec       q    Type
                         _______ _______ _______ _____ _____    ______ ____

>  <TORSDO>  (3) 
F 4

>  <grid_id>  (3) 
syk-prepared

>  <grid_path>  (3) 
syk_vina.pdbqt

>  <grid_filename>  (3) 
syk_vina.pdbqt

>  <docking_score>  (3) 
-9.455

>  <compound_name>  (3) 
CHEMBL3265021

>  <index_string>  (3) 
2:0:0

>  <s_m_Source_Path>  (3) 
/projects/mai/users/kmzp800_harry/pmx_colab/docking_jobs/syk/vina_prep/output

>  <s_m_Source_File>  (3) 
ptp1b_docked_conformers.sdf

>  <i_m_Source_File_Index>  (3) 
3

$$$$
CHEMBL3265016
     RDKit          3D

 48 52  0  0  1  0  0  0  0  0999 V2000
    5.8240   -0.5790   16.3740 C   0  0  0  0  0  0  0  0  0  0  0  0
    4.5410   -1.0100   16.2670 N   0  0  0  0  0  0  0  0  0  0  0  0
    4.0480   -0.2830   15.2500 C   0  0  0  0  0  0  0  0  0  0  0  0
    2.7560   -0.3420   14.7330 C   0  0  0  0  0  0  0  0  0  0  0  0
    1.7900   -1.2470   15.2850 N   0  0  0  0  0  0  0  0  0  0  0  0
    2.4530    0.4860   13.6890 N   0  0  0  0  0  0  0  0  0  0  0  0
    3.3710    1.3540   13.1540 C   0  0  0  0  0  0  0  0  0  0  0  0
    4.6690    1.3920   13.6980 C   0  0  0  0  0  0  0  0  0  0  0  0
    4.9420    0.5610   14.7300 N   0  0  0  0  0  0  0  0  0  0  0  0
    6.0800    0.4020   15.4180 C   0  0  0  0  0  0  0  0  0  0  0  0
    2.9890    2.2280   12.0260 C   0  0  0  0  0  0  0  0  0  0  0  0
    3.9400    2.5410   11.0230 C   0  0  0  0  0  0  0  0  0  0  0  0
    3.6030    3.3710    9.9390 C   0  0  0  0  0  0  0  0  0  0  0  0
    2.3050    3.8720    9.8910 C   0  0  0  0  0  0  0  0  0  0  0  0
    1.7130    4.6930    8.9630 C   0  0  0  0  0  0  0  0  0  0  0  0
    0.4090    4.8530    9.4390 C   0  0  0  0  0  0  0  0  0  0  0  0
    0.2080    4.1720   10.5950 N   0  0  0  0  0  0  0  0  0  0  0  0
    1.3820    3.5800   10.8500 C   0  0  0  0  0  0  0  0  0  0  0  0
    1.6830    2.7610   11.9360 C   0  0  0  0  0  0  0  0  0  0  0  0
    0.4290   -1.4240   14.8660 C   0  0  0  0  0  0  0  0  0  0  0  0
   -0.3030   -2.5750   15.1800 C   0  0  0  0  0  0  0  0  0  0  0  0
   -1.6260   -2.7090   14.7540 C   0  0  0  0  0  0  0  0  0  0  0  0
   -2.2370   -1.6920   14.0050 C   0  0  0  0  0  0  0  0  0  0  0  0
   -1.5100   -0.5350   13.6860 C   0  0  0  0  0  0  0  0  0  0  0  0
   -0.1800   -0.4100   14.1200 C   0  0  0  0  0  0  0  0  0  0  0  0
   -3.5620   -1.8080   13.5690 O   0  0  0  0  0  0  0  0  0  0  0  0
   -4.1290   -3.0440   13.1560 C   0  0  0  0  0  0  0  0  0  0  0  0
   -2.1260    0.4760   12.9380 O   0  0  0  0  0  0  0  0  0  0  0  0
   -1.5510    1.0160   11.7570 C   0  0  0  0  0  0  0  0  0  0  0  0
    6.5545   -0.9499   17.1080 H   0  0  0  0  0  0  0  0  0  0  0  0
    2.1083   -1.8348   16.0687 H   0  0  0  0  0  0  0  0  0  0  0  0
    5.4343    2.0734   13.2980 H   0  0  0  0  0  0  0  0  0  0  0  0
    7.0272    0.9385   15.2600 H   0  0  0  0  0  0  0  0  0  0  0  0
    4.9573    2.1284   11.0935 H   0  0  0  0  0  0  0  0  0  0  0  0
    4.3379    3.6154    9.1578 H   0  0  0  0  0  0  0  0  0  0  0  0
    2.1611    5.1244    8.0558 H   0  0  0  0  0  0  0  0  0  0  0  0
   -0.3609    5.4576    8.9374 H   0  0  0  0  0  0  0  0  0  0  0  0
   -0.6562    4.1214   11.1531 H   0  0  0  0  0  0  0  0  0  0  0  0
    0.9260    2.5356   12.7016 H   0  0  0  0  0  0  0  0  0  0  0  0
    0.1668   -3.3788   15.7659 H   0  0  0  0  0  0  0  0  0  0  0  0
   -2.1926   -3.6173   15.0071 H   0  0  0  0  0  0  0  0  0  0  0  0
    0.3898    0.4971   13.8699 H   0  0  0  0  0  0  0  0  0  0  0  0
   -4.4009   -3.6368   14.0418 H   0  0  0  0  0  0  0  0  0  0  0  0
   -5.0288   -2.8514   12.5533 H   0  0  0  0  0  0  0  0  0  0  0  0
   -3.3961   -3.6004   12.5533 H   0  0  0  0  0  0  0  0  0  0  0  0
   -0.7739    1.7458   12.0281 H   0  0  0  0  0  0  0  0  0  0  0  0
   -1.1020    0.2055   11.1641 H   0  0  0  0  0  0  0  0  0  0  0  0
   -2.3317    1.5149   11.1641 H   0  0  0  0  0  0  0  0  0  0  0  0
  1  2  1  0
  1 10  2  0
  2  3  2  0
  3  4  1  0
  3  9  1  0
  4  5  1  0
  4  6  2  0
  5 20  1  0
  6  7  1  0
  7  8  2  0
  7 11  1  0
  8  9  1  0
  9 10  1  0
 11 12  2  0
 11 19  1  0
 12 13  1  0
 13 14  2  0
 14 18  1  0
 14 15  1  0
 15 16  2  0
 16 17  1  0
 17 18  1  0
 18 19  2  0
 20 21  2  0
 20 25  1  0
 21 22  1  0
 22 23  2  0
 23 24  1  0
 23 26  1  0
 24 25  2  0
 24 28  1  0
 26 27  1  0
 28 29  1  0
  1 30  1  0
  5 31  1  0
  8 32  1  0
 10 33  1  0
 12 34  1  0
 13 35  1  0
 15 36  1  0
 16 37  1  0
 17 38  1  0
 19 39  1  0
 21 40  1  0
 22 41  1  0
 25 42  1  0
 27 43  1  0
 27 44  1  0
 27 45  1  0
 29 46  1  0
 29 47  1  0
 29 48  1  0
M  END
>  <s_m_entry_id>  (4) 
4

>  <MODEL>  (4) 
1

>  <REMARK>  (4) 
 VINA RESULT:    -9.557      0.000      0.000
 INTER + INTRA:         -12.142
 INTER:                 -11.791
 INTRA:                  -0.351
 UNBOUND:                -0.351
  Name = /scratch/kmzp800/tmp2dfhaiow/tmps_f4fw1w.pdb
  6 active torsions:
  status: ('A' for Active; 'I' for Inactive)
    1  A    between atoms: N2_5  and  C4_6
    2  A    between atoms: C7_9  and  O1_10
    3  A    between atoms: O1_10  and  C8_11
    4  A    between atoms: C9_12  and  O2_13
    5  A    between atoms: O2_13  and  C10_14
    6  A    between atoms: C12_17  and  C13_18
                            x       y       z     vdW  Elec       q    Type
                         _______ _______ _______ _____ _____    ______ ____

>  <TORSDO>  (4) 
F 4

>  <grid_id>  (4) 
syk-prepared

>  <grid_path>  (4) 
syk_vina.pdbqt

>  <grid_filename>  (4) 
syk_vina.pdbqt

>  <docking_score>  (4) 
-9.557

>  <compound_name>  (4) 
CHEMBL3265016

>  <index_string>  (4) 
3:0:0

>  <s_m_Source_Path>  (4) 
/projects/mai/users/kmzp800_harry/pmx_colab/docking_jobs/syk/vina_prep/output

>  <s_m_Source_File>  (4) 
ptp1b_docked_conformers.sdf

>  <i_m_Source_File_Index>  (4) 
4

$$$$
CHEMBL3265028
     RDKit          3D

 43 47  0  0  1  0  0  0  0  0999 V2000
    6.1950    0.1550   15.8610 C   0  0  0  0  0  0  0  0  0  0  0  0
    5.8460    0.9070   14.7870 N   0  0  0  0  0  0  0  0  0  0  0  0
    4.5690    0.5550   14.5560 C   0  0  0  0  0  0  0  0  0  0  0  0
    3.7370    1.0420   13.5520 C   0  0  0  0  0  0  0  0  0  0  0  0
    4.2170    2.0260   12.6230 N   0  0  0  0  0  0  0  0  0  0  0  0
    2.4650    0.5510   13.4900 N   0  0  0  0  0  0  0  0  0  0  0  0
    1.9990   -0.3880   14.3730 C   0  0  0  0  0  0  0  0  0  0  0  0
    2.8620   -0.8650   15.3790 C   0  0  0  0  0  0  0  0  0  0  0  0
    4.1180   -0.3600   15.4180 N   0  0  0  0  0  0  0  0  0  0  0  0
    5.1220   -0.6380   16.2600 C   0  0  0  0  0  0  0  0  0  0  0  0
    0.6120   -0.8860   14.2600 C   0  0  0  0  0  0  0  0  0  0  0  0
   -0.3140   -0.2090   13.4240 C   0  0  0  0  0  0  0  0  0  0  0  0
   -1.6410   -0.6590   13.2960 C   0  0  0  0  0  0  0  0  0  0  0  0
   -2.0020   -1.7880   14.0220 C   0  0  0  0  0  0  0  0  0  0  0  0
   -3.1930   -2.4690   14.1160 C   0  0  0  0  0  0  0  0  0  0  0  0
   -2.9850   -3.5030   14.9700 N   0  0  0  0  0  0  0  0  0  0  0  0
   -1.7270   -3.4930   15.4050 N   0  0  0  0  0  0  0  0  0  0  0  0
   -1.1240   -2.4460   14.8270 C   0  0  0  0  0  0  0  0  0  0  0  0
    0.1960   -2.0310   14.9780 C   0  0  0  0  0  0  0  0  0  0  0  0
    3.4870    2.6220   11.5420 C   0  0  0  0  0  0  0  0  0  0  0  0
    4.0740    2.8640   10.2900 C   0  0  0  0  0  0  0  0  0  0  0  0
    3.3300    3.4470    9.2620 C   0  0  0  0  0  0  0  0  0  0  0  0
    1.9930    3.7920    9.4750 C   0  0  0  0  0  0  0  0  0  0  0  0
    1.3940    3.5570   10.7160 C   0  0  0  0  0  0  0  0  0  0  0  0
    2.1490    2.9710   11.7460 C   0  0  0  0  0  0  0  0  0  0  0  0
    0.0550    3.9130   10.8990 O   0  0  0  0  0  0  0  0  0  0  0  0
   -0.8970    3.0380   11.4880 C   0  0  0  0  0  0  0  0  0  0  0  0
    7.1821    0.1696   16.3461 H   0  0  0  0  0  0  0  0  0  0  0  0
    5.1910    2.3375   12.7463 H   0  0  0  0  0  0  0  0  0  0  0  0
    2.5280   -1.6198   16.1061 H   0  0  0  0  0  0  0  0  0  0  0  0
    5.1028   -1.3498   17.0984 H   0  0  0  0  0  0  0  0  0  0  0  0
    0.0111    0.6821   12.8670 H   0  0  0  0  0  0  0  0  0  0  0  0
   -2.3625   -0.1391   12.6485 H   0  0  0  0  0  0  0  0  0  0  0  0
   -4.1324   -2.2232   13.5991 H   0  0  0  0  0  0  0  0  0  0  0  0
   -1.2992   -4.1623   16.0606 H   0  0  0  0  0  0  0  0  0  0  0  0
    0.8918   -2.5752   15.6335 H   0  0  0  0  0  0  0  0  0  0  0  0
    5.1260    2.5929   10.1177 H   0  0  0  0  0  0  0  0  0  0  0  0
    3.7969    3.6347    8.2839 H   0  0  0  0  0  0  0  0  0  0  0  0
    1.4094    4.2503    8.6630 H   0  0  0  0  0  0  0  0  0  0  0  0
    1.6817    2.7847   12.7242 H   0  0  0  0  0  0  0  0  0  0  0  0
   -0.8261    3.1031   12.5838 H   0  0  0  0  0  0  0  0  0  0  0  0
   -1.9087    3.3280   11.1681 H   0  0  0  0  0  0  0  0  0  0  0  0
   -0.6932    2.0055   11.1681 H   0  0  0  0  0  0  0  0  0  0  0  0
  1 10  2  0
  1  2  1  0
  2  3  2  0
  3  9  1  0
  3  4  1  0
  4  5  1  0
  4  6  2  0
  5 20  1  0
  6  7  1  0
  7  8  2  0
  7 11  1  0
  8  9  1  0
  9 10  1  0
 11 19  1  0
 11 12  2  0
 12 13  1  0
 13 14  2  0
 14 15  1  0
 14 18  1  0
 15 16  2  0
 16 17  1  0
 17 18  1  0
 18 19  2  0
 20 25  1  0
 20 21  2  0
 21 22  1  0
 22 23  2  0
 23 24  1  0
 24 26  1  0
 24 25  2  0
 26 27  1  0
  1 28  1  0
  5 29  1  0
  8 30  1  0
 10 31  1  0
 12 32  1  0
 13 33  1  0
 15 34  1  0
 17 35  1  0
 19 36  1  0
 21 37  1  0
 22 38  1  0
 23 39  1  0
 25 40  1  0
 27 41  1  0
 27 42  1  0
 27 43  1  0
M  END
>  <s_m_entry_id>  (5) 
5

>  <MODEL>  (5) 
1

>  <REMARK>  (5) 
 VINA RESULT:    -9.507      0.000      0.000
 INTER + INTRA:         -11.581
 INTER:                 -11.174
 INTRA:                  -0.408
 UNBOUND:                -0.408
  Name = /scratch/kmzp800/tmpmqwg9p7s/tmpf758uyz6.pdb
  4 active torsions:
  status: ('A' for Active; 'I' for Inactive)
    1  A    between atoms: N2_5  and  C4_6
    2  A    between atoms: C8_10  and  O1_11
    3  A    between atoms: O1_11  and  C9_12
    4  A    between atoms: C11_15  and  C12_16
                            x       y       z     vdW  Elec       q    Type
                         _______ _______ _______ _____ _____    ______ ____

>  <TORSDO>  (5) 
F 3

>  <grid_id>  (5) 
syk-prepared

>  <grid_path>  (5) 
syk_vina.pdbqt

>  <grid_filename>  (5) 
syk_vina.pdbqt

>  <docking_score>  (5) 
-9.507

>  <compound_name>  (5) 
CHEMBL3265028

>  <index_string>  (5) 
4:0:0

>  <s_m_Source_Path>  (5) 
/projects/mai/users/kmzp800_harry/pmx_colab/docking_jobs/syk/vina_prep/output

>  <s_m_Source_File>  (5) 
ptp1b_docked_conformers.sdf

>  <i_m_Source_File_Index>  (5) 
5

$$$$
CHEMBL3265012
     RDKit          3D

 48 51  0  0  1  0  0  0  0  0999 V2000
    6.2010    0.0780   15.8400 C   0  0  0  0  0  0  0  0  0  0  0  0
    5.8350    0.8860   14.8120 N   0  0  0  0  0  0  0  0  0  0  0  0
    4.5530    0.5510   14.5880 C   0  0  0  0  0  0  0  0  0  0  0  0
    3.7060    1.0940   13.6260 C   0  0  0  0  0  0  0  0  0  0  0  0
    4.1710    2.1230   12.7410 N   0  0  0  0  0  0  0  0  0  0  0  0
    2.4290    0.6100   13.5610 N   0  0  0  0  0  0  0  0  0  0  0  0
    1.9770   -0.3730   14.4020 C   0  0  0  0  0  0  0  0  0  0  0  0
    2.8550   -0.9040   15.3660 C   0  0  0  0  0  0  0  0  0  0  0  0
    4.1130   -0.4060   15.4080 N   0  0  0  0  0  0  0  0  0  0  0  0
    5.1310   -0.7310   16.2160 C   0  0  0  0  0  0  0  0  0  0  0  0
    0.5850   -0.8590   14.2880 C   0  0  0  0  0  0  0  0  0  0  0  0
   -0.3530   -0.1350   13.5430 C   0  0  0  0  0  0  0  0  0  0  0  0
   -1.6690   -0.5880   13.4310 C   0  0  0  0  0  0  0  0  0  0  0  0
   -2.0780   -1.7730   14.0590 C   0  0  0  0  0  0  0  0  0  0  0  0
   -1.1340   -2.5030   14.8100 C   0  0  0  0  0  0  0  0  0  0  0  0
   -1.4680   -3.6560   15.4410 F   0  0  0  0  0  0  0  0  0  0  0  0
    0.1820   -2.0450   14.9190 C   0  0  0  0  0  0  0  0  0  0  0  0
   -3.4850   -2.2130   13.9120 C   0  0  0  0  0  0  0  0  0  0  0  0
   -4.2960   -2.0590   14.8630 O   0  0  0  0  0  0  0  0  0  0  0  0
   -3.9470   -2.8110   12.7050 N   0  0  0  0  0  0  0  0  0  0  0  0
    3.4250    2.7780   11.7060 C   0  0  0  0  0  0  0  0  0  0  0  0
    4.0220    3.1980   10.5100 C   0  0  0  0  0  0  0  0  0  0  0  0
    3.2620    3.8320    9.5260 C   0  0  0  0  0  0  0  0  0  0  0  0
    1.8900    4.0560    9.7210 C   0  0  0  0  0  0  0  0  0  0  0  0
    1.2850    3.6370   10.9170 C   0  0  0  0  0  0  0  0  0  0  0  0
    2.0590    3.0000   11.9000 C   0  0  0  0  0  0  0  0  0  0  0  0
    1.1120    4.6900    8.7470 O   0  0  0  0  0  0  0  0  0  0  0  0
    0.8550    6.0870    8.7570 C   0  0  0  0  0  0  0  0  0  0  0  0
   -0.0840    3.8620   11.1050 O   0  0  0  0  0  0  0  0  0  0  0  0
   -1.0450    2.8160   11.0840 C   0  0  0  0  0  0  0  0  0  0  0  0
    7.1966    0.0642   16.3075 H   0  0  0  0  0  0  0  0  0  0  0  0
    5.1484    2.4246   12.8623 H   0  0  0  0  0  0  0  0  0  0  0  0
    2.5308   -1.6941   16.0592 H   0  0  0  0  0  0  0  0  0  0  0  0
    5.1235   -1.4857   17.0162 H   0  0  0  0  0  0  0  0  0  0  0  0
   -0.0515    0.7970   13.0425 H   0  0  0  0  0  0  0  0  0  0  0  0
   -2.3945   -0.0075   12.8423 H   0  0  0  0  0  0  0  0  0  0  0  0
    0.9109   -2.6220   15.5071 H   0  0  0  0  0  0  0  0  0  0  0  0
   -4.9290   -3.1105   12.6217 H   0  0  0  0  0  0  0  0  0  0  0  0
   -3.2992   -2.9440   11.9153 H   0  0  0  0  0  0  0  0  0  0  0  0
    5.0961    3.0270   10.3456 H   0  0  0  0  0  0  0  0  0  0  0  0
    3.7414    4.1584    8.5913 H   0  0  0  0  0  0  0  0  0  0  0  0
    1.5836    2.6711   12.8358 H   0  0  0  0  0  0  0  0  0  0  0  0
    0.7900    6.4404    9.7966 H   0  0  0  0  0  0  0  0  0  0  0  0
    1.6713    6.6137    8.2410 H   0  0  0  0  0  0  0  0  0  0  0  0
   -0.0953    6.2887    8.2410 H   0  0  0  0  0  0  0  0  0  0  0  0
   -1.3034    2.5347   12.1156 H   0  0  0  0  0  0  0  0  0  0  0  0
   -1.9492    3.1593   10.5601 H   0  0  0  0  0  0  0  0  0  0  0  0
   -0.6265    1.9440   10.5601 H   0  0  0  0  0  0  0  0  0  0  0  0
  1 10  2  0
  1  2  1  0
  2  3  2  0
  3  9  1  0
  3  4  1  0
  4  5  1  0
  4  6  2  0
  5 21  1  0
  6  7  1  0
  7  8  2  0
  7 11  1  0
  8  9  1  0
  9 10  1  0
 11 17  1  0
 11 12  2  0
 12 13  1  0
 13 14  2  0
 14 15  1  0
 14 18  1  0
 15 17  2  0
 15 16  1  0
 18 19  2  0
 18 20  1  0
 21 26  1  0
 21 22  2  0
 22 23  1  0
 23 24  2  0
 24 25  1  0
 24 27  1  0
 25 29  1  0
 25 26  2  0
 27 28  1  0
 29 30  1  0
  1 31  1  0
  5 32  1  0
  8 33  1  0
 10 34  1  0
 12 35  1  0
 13 36  1  0
 17 37  1  0
 20 38  1  0
 20 39  1  0
 22 40  1  0
 23 41  1  0
 26 42  1  0
 28 43  1  0
 28 44  1  0
 28 45  1  0
 30 46  1  0
 30 47  1  0
 30 48  1  0
M  END
>  <s_m_entry_id>  (6) 
6

>  <MODEL>  (6) 
1

>  <REMARK>  (6) 
 VINA RESULT:    -9.061      0.000      0.000
 INTER + INTRA:         -12.214
 INTER:                 -11.709
 INTRA:                  -0.505
 UNBOUND:                -0.505
  Name = /scratch/kmzp800/tmpq0q87mve/tmpd3sq233z.pdb
  7 active torsions:
  status: ('A' for Active; 'I' for Inactive)
    1  A    between atoms: N2_5  and  C4_6
    2  A    between atoms: C7_9  and  O1_10
    3  A    between atoms: O1_10  and  C8_11
    4  A    between atoms: C9_12  and  O2_13
    5  A    between atoms: O2_13  and  C10_14
    6  A    between atoms: C12_17  and  C13_18
    7  A    between atoms: C16_21  and  C17_22
                            x       y       z     vdW  Elec       q    Type
                         _______ _______ _______ _____ _____    ______ ____

>  <TORSDO>  (6) 
F 5

>  <grid_id>  (6) 
syk-prepared

>  <grid_path>  (6) 
syk_vina.pdbqt

>  <grid_filename>  (6) 
syk_vina.pdbqt

>  <docking_score>  (6) 
-9.061

>  <compound_name>  (6) 
CHEMBL3265012

>  <index_string>  (6) 
5:0:0

>  <s_m_Source_Path>  (6) 
/projects/mai/users/kmzp800_harry/pmx_colab/docking_jobs/syk/vina_prep/output

>  <s_m_Source_File>  (6) 
ptp1b_docked_conformers.sdf

>  <i_m_Source_File_Index>  (6) 
6

$$$$
CHEMBL3265004
     RDKit          3D

 65 70  0  0  1  0  0  0  0  0999 V2000
    1.5460    0.7970   13.3910 C   0  0  0  0  0  0  0  0  0  0  0  0
    2.8990    0.4350   13.4700 C   0  0  0  0  0  0  0  0  0  0  0  0
    3.8580    1.1220   12.7220 C   0  0  0  0  0  0  0  0  0  0  0  0
    3.4730    2.1750   11.8890 C   0  0  0  0  0  0  0  0  0  0  0  0
    2.1240    2.5510   11.7960 C   0  0  0  0  0  0  0  0  0  0  0  0
    1.1700    1.8550   12.5520 C   0  0  0  0  0  0  0  0  0  0  0  0
    1.7010    3.6620   10.9200 C   0  0  0  0  0  0  0  0  0  0  0  0
    0.3780    3.8140   10.5990 N   0  0  0  0  0  0  0  0  0  0  0  0
   -0.0690    4.8220    9.7940 C   0  0  0  0  0  0  0  0  0  0  0  0
   -1.4580    4.9690    9.4660 N   0  0  0  0  0  0  0  0  0  0  0  0
    0.8770    5.7150    9.2950 C   0  0  0  0  0  0  0  0  0  0  0  0
    0.6450    6.7670    8.4920 N   0  0  0  0  0  0  0  0  0  0  0  0
    1.8790    7.3000    8.3000 C   0  0  0  0  0  0  0  0  0  0  0  0
    2.8340    6.5580    8.9920 C   0  0  0  0  0  0  0  0  0  0  0  0
    2.1680    5.5700    9.6050 N   0  0  0  0  0  0  0  0  0  0  0  0
    2.6360    4.5800   10.4010 C   0  0  0  0  0  0  0  0  0  0  0  0
   -2.5400    4.1350    9.9020 C   0  0  0  0  0  0  0  0  0  0  0  0
   -2.7520    3.8360   11.2540 C   0  0  0  0  0  0  0  0  0  0  0  0
   -3.8170    3.0200   11.6390 C   0  0  0  0  0  0  0  0  0  0  0  0
   -4.6880    2.4880   10.6750 C   0  0  0  0  0  0  0  0  0  0  0  0
   -4.4830    2.7830    9.3180 C   0  0  0  0  0  0  0  0  0  0  0  0
   -3.4090    3.6060    8.9430 C   0  0  0  0  0  0  0  0  0  0  0  0
   -5.7620    1.6680   11.0420 O   0  0  0  0  0  0  0  0  0  0  0  0
   -7.1180    2.0720   10.9100 C   0  0  0  0  0  0  0  0  0  0  0  0
   -5.3570    2.2500    8.3640 O   0  0  0  0  0  0  0  0  0  0  0  0
   -5.5560    2.8440    7.0880 C   0  0  0  0  0  0  0  0  0  0  0  0
   -0.2570   -0.9500   13.5580 N   0  0  0  0  0  0  0  0  0  0  0  0
    0.5330    0.0760   14.1800 C   0  0  0  0  0  0  0  0  0  0  0  0
    0.3660    0.3650   15.3960 O   0  0  0  0  0  0  0  0  0  0  0  0
   -3.2320   -3.3540   15.4080 C   0  0  0  0  0  0  0  0  0  0  0  0
   -3.5890   -2.1310   14.8220 C   0  0  0  0  0  0  0  0  0  0  0  0
   -2.6200   -1.3320   14.2100 C   0  0  0  0  0  0  0  0  0  0  0  0
   -1.2790   -1.7430   14.1760 C   0  0  0  0  0  0  0  0  0  0  0  0
   -0.9230   -2.9620   14.7610 C   0  0  0  0  0  0  0  0  0  0  0  0
   -1.8910   -3.7630   15.3730 C   0  0  0  0  0  0  0  0  0  0  0  0
   -4.5250   -4.2770   17.4040 C   0  0  0  0  0  0  0  0  0  0  0  0
   -5.5250   -5.1640   17.5630 N   0  0  0  0  0  0  0  0  0  0  0  0
   -5.8840   -5.6350   16.3790 N   0  0  0  0  0  0  0  0  0  0  0  0
   -5.1250   -5.0640   15.4260 C   0  0  0  0  0  0  0  0  0  0  0  0
   -4.2520   -4.1970   16.0530 C   0  0  0  0  0  0  0  0  0  0  0  0
    3.2063   -0.3941   14.1243 H   0  0  0  0  0  0  0  0  0  0  0  0
    4.9174    0.8335   12.7890 H   0  0  0  0  0  0  0  0  0  0  0  0
    4.2320    2.7131   11.3021 H   0  0  0  0  0  0  0  0  0  0  0  0
    0.1106    2.1436   12.4857 H   0  0  0  0  0  0  0  0  0  0  0  0
   -1.7044    5.7581    8.8516 H   0  0  0  0  0  0  0  0  0  0  0  0
    2.0935    8.1881    7.6874 H   0  0  0  0  0  0  0  0  0  0  0  0
    3.9173    6.7456    9.0279 H   0  0  0  0  0  0  0  0  0  0  0  0
    3.7076    4.4951   10.6343 H   0  0  0  0  0  0  0  0  0  0  0  0
   -2.0748    4.2469   12.0172 H   0  0  0  0  0  0  0  0  0  0  0  0
   -3.9747    2.7925   12.7036 H   0  0  0  0  0  0  0  0  0  0  0  0
   -3.2490    3.8378    7.8797 H   0  0  0  0  0  0  0  0  0  0  0  0
   -7.5602    2.2037   11.9085 H   0  0  0  0  0  0  0  0  0  0  0  0
   -7.1653    3.0232   10.3596 H   0  0  0  0  0  0  0  0  0  0  0  0
   -7.6782    1.3017   10.3596 H   0  0  0  0  0  0  0  0  0  0  0  0
   -5.9031    3.8799    7.2159 H   0  0  0  0  0  0  0  0  0  0  0  0
   -4.6078    2.8412    6.5303 H   0  0  0  0  0  0  0  0  0  0  0  0
   -6.3111    2.2705    6.5303 H   0  0  0  0  0  0  0  0  0  0  0  0
   -0.0692   -1.1356   12.5624 H   0  0  0  0  0  0  0  0  0  0  0  0
   -4.6375   -1.7990   14.8443 H   0  0  0  0  0  0  0  0  0  0  0  0
   -2.9102   -0.3749   13.7520 H   0  0  0  0  0  0  0  0  0  0  0  0
    0.1259   -3.2927   14.7394 H   0  0  0  0  0  0  0  0  0  0  0  0
   -1.5993   -4.7201   15.8300 H   0  0  0  0  0  0  0  0  0  0  0  0
   -4.0180   -3.7180   18.2043 H   0  0  0  0  0  0  0  0  0  0  0  0
   -6.6270   -6.3289   16.2135 H   0  0  0  0  0  0  0  0  0  0  0  0
   -5.1884   -5.2533   14.3443 H   0  0  0  0  0  0  0  0  0  0  0  0
  1  2  2  0
  1 28  1  0
  1  6  1  0
  2  3  1  0
  3  4  2  0
  4  5  1  0
  5  6  2  0
  5  7  1  0
  7  8  1  0
  7 16  2  0
  8  9  2  0
  9 10  1  0
  9 11  1  0
 10 17  1  0
 11 15  1  0
 11 12  2  0
 12 13  1  0
 13 14  2  0
 14 15  1  0
 15 16  1  0
 17 18  2  0
 17 22  1  0
 18 19  1  0
 19 20  2  0
 20 23  1  0
 20 21  1  0
 21 22  2  0
 21 25  1  0
 23 24  1  0
 25 26  1  0
 27 33  1  0
 27 28  1  0
 28 29  2  0
 30 40  1  0
 30 31  2  0
 30 35  1  0
 31 32  1  0
 32 33  2  0
 33 34  1  0
 34 35  2  0
 36 37  2  0
 36 40  1  0
 37 38  1  0
 38 39  1  0
 39 40  2  0
  2 41  1  0
  3 42  1  0
  4 43  1  0
  6 44  1  0
 10 45  1  0
 13 46  1  0
 14 47  1  0
 16 48  1  0
 18 49  1  0
 19 50  1  0
 22 51  1  0
 24 52  1  0
 24 53  1  0
 24 54  1  0
 26 55  1  0
 26 56  1  0
 26 57  1  0
 27 58  1  0
 31 59  1  0
 32 60  1  0
 34 61  1  0
 35 62  1  0
 36 63  1  0
 38 64  1  0
 39 65  1  0
M  END
>  <s_m_entry_id>  (7) 
7

>  <MODEL>  (7) 
1

>  <REMARK>  (7) 
 VINA RESULT:    -8.620      0.000      0.000
 INTER + INTRA:         -13.168
 INTER:                 -12.147
 INTRA:                  -1.021
 UNBOUND:                -1.021
  Name = /scratch/kmzp800/tmpkeom2v4d/tmpvvvfc7un.pdb
  9 active torsions:
  status: ('A' for Active; 'I' for Inactive)
    1  A    between atoms: C3_5  and  C4_6
    2  A    between atoms: C7_9  and  N3_10
    3  A    between atoms: C8_11  and  C9_13
    4  A    between atoms: C13_17  and  C14_18
    5  A    between atoms: N5_21  and  C16_22
    6  A    between atoms: C19_25  and  O2_26
    7  A    between atoms: O2_26  and  C20_27
    8  A    between atoms: C21_28  and  O3_29
    9  A    between atoms: O3_29  and  C22_30
                            x       y       z     vdW  Elec       q    Type
                         _______ _______ _______ _____ _____    ______ ____

>  <TORSDO>  (7) 
F 7

>  <grid_id>  (7) 
syk-prepared

>  <grid_path>  (7) 
syk_vina.pdbqt

>  <grid_filename>  (7) 
syk_vina.pdbqt

>  <docking_score>  (7) 
-8.62

>  <compound_name>  (7) 
CHEMBL3265004

>  <index_string>  (7) 
6:0:0

>  <s_m_Source_Path>  (7) 
/projects/mai/users/kmzp800_harry/pmx_colab/docking_jobs/syk/vina_prep/output

>  <s_m_Source_File>  (7) 
ptp1b_docked_conformers.sdf

>  <i_m_Source_File_Index>  (7) 
7

$$$$
CHEMBL3265031
     RDKit          3D

 58 63  0  0  1  0  0  0  0  0999 V2000
    1.7950   -1.4010   15.4500 N   0  0  0  0  0  0  0  0  0  0  0  0
    2.6590   -0.4360   14.8330 C   0  0  0  0  0  0  0  0  0  0  0  0
    2.2360    0.3570   13.8040 N   0  0  0  0  0  0  0  0  0  0  0  0
    3.0540    1.2820   13.2080 C   0  0  0  0  0  0  0  0  0  0  0  0
    4.3770    1.4200   13.6710 C   0  0  0  0  0  0  0  0  0  0  0  0
    4.7700    0.6210   14.6910 N   0  0  0  0  0  0  0  0  0  0  0  0
    5.9560    0.5520   15.3100 C   0  0  0  0  0  0  0  0  0  0  0  0
    5.8290   -0.4340   16.2860 C   0  0  0  0  0  0  0  0  0  0  0  0
    4.5770   -0.9560   16.2610 N   0  0  0  0  0  0  0  0  0  0  0  0
    3.9720   -0.2780   15.2700 C   0  0  0  0  0  0  0  0  0  0  0  0
    2.5440    2.1130   12.0980 C   0  0  0  0  0  0  0  0  0  0  0  0
    3.4310    2.6550   11.1310 C   0  0  0  0  0  0  0  0  0  0  0  0
    2.9550    3.4480   10.0720 C   0  0  0  0  0  0  0  0  0  0  0  0
    1.5850    3.6760   10.0150 C   0  0  0  0  0  0  0  0  0  0  0  0
    0.8160    4.3920    9.1270 C   0  0  0  0  0  0  0  0  0  0  0  0
   -0.4700    4.2800    9.5470 N   0  0  0  0  0  0  0  0  0  0  0  0
   -0.5310    3.5340   10.6470 N   0  0  0  0  0  0  0  0  0  0  0  0
    0.7240    3.1630   10.9360 C   0  0  0  0  0  0  0  0  0  0  0  0
    1.1590    2.3740   11.9960 C   0  0  0  0  0  0  0  0  0  0  0  0
   -2.2570   -2.2890   14.4990 C   0  0  0  0  0  0  0  0  0  0  0  0
   -1.6530   -1.1290   13.9870 C   0  0  0  0  0  0  0  0  0  0  0  0
   -0.3240   -0.8260   14.2920 C   0  0  0  0  0  0  0  0  0  0  0  0
    0.4280   -1.6770   15.1150 C   0  0  0  0  0  0  0  0  0  0  0  0
   -0.1680   -2.8330   15.6260 C   0  0  0  0  0  0  0  0  0  0  0  0
   -1.4980   -3.1380   15.3210 C   0  0  0  0  0  0  0  0  0  0  0  0
   -6.0320   -4.1180   13.6700 C   0  0  0  0  0  0  0  0  0  0  0  0
   -7.5440   -4.0610   13.7190 C   0  0  0  0  0  0  0  0  0  0  0  0
   -5.5390   -3.0600   12.6760 C   0  0  0  0  0  0  0  0  0  0  0  0
   -4.0300   -2.8410   12.7930 C   0  0  0  0  0  0  0  0  0  0  0  0
   -3.6270   -2.6030   14.1850 N   0  0  0  0  0  0  0  0  0  0  0  0
   -4.6360   -2.6520   15.2430 C   0  0  0  0  0  0  0  0  0  0  0  0
   -5.4860   -3.9130   15.0930 C   0  0  0  0  0  0  0  0  0  0  0  0
   -5.6480   -5.3820   13.2200 O   0  0  0  0  0  0  0  0  0  0  0  0
    2.2006   -1.9560   16.2170 H   0  0  0  0  0  0  0  0  0  0  0  0
    5.0656    2.1500   13.2205 H   0  0  0  0  0  0  0  0  0  0  0  0
    6.8508    1.1533   15.0915 H   0  0  0  0  0  0  0  0  0  0  0  0
    6.6274   -0.7441   16.9762 H   0  0  0  0  0  0  0  0  0  0  0  0
    4.5089    2.4511   11.2116 H   0  0  0  0  0  0  0  0  0  0  0  0
    3.6380    3.8702    9.3202 H   0  0  0  0  0  0  0  0  0  0  0  0
    1.1737    4.9474    8.2475 H   0  0  0  0  0  0  0  0  0  0  0  0
   -1.3804    3.2885   11.1754 H   0  0  0  0  0  0  0  0  0  0  0  0
    0.4484    1.9668   12.7304 H   0  0  0  0  0  0  0  0  0  0  0  0
   -2.2316   -0.4532   13.3401 H   0  0  0  0  0  0  0  0  0  0  0  0
    0.1359    0.0862   13.8840 H   0  0  0  0  0  0  0  0  0  0  0  0
    0.4129   -3.5074   16.2724 H   0  0  0  0  0  0  0  0  0  0  0  0
   -1.9544   -4.0520   15.7289 H   0  0  0  0  0  0  0  0  0  0  0  0
   -7.8767   -4.0485   14.7674 H   0  0  0  0  0  0  0  0  0  0  0  0
   -7.8932   -3.1491   13.2126 H   0  0  0  0  0  0  0  0  0  0  0  0
   -7.9608   -4.9441   13.2126 H   0  0  0  0  0  0  0  0  0  0  0  0
   -5.7737   -3.3927   11.6541 H   0  0  0  0  0  0  0  0  0  0  0  0
   -6.0443   -2.1100   12.9043 H   0  0  0  0  0  0  0  0  0  0  0  0
   -3.5090   -3.7342   12.4178 H   0  0  0  0  0  0  0  0  0  0  0  0
   -3.7630   -1.9539   12.1999 H   0  0  0  0  0  0  0  0  0  0  0  0
   -4.1366   -2.6632   16.2230 H   0  0  0  0  0  0  0  0  0  0  0  0
   -5.2845   -1.7668   15.1663 H   0  0  0  0  0  0  0  0  0  0  0  0
   -6.3373   -3.8437   15.7861 H   0  0  0  0  0  0  0  0  0  0  0  0
   -4.8351   -4.7710   15.3169 H   0  0  0  0  0  0  0  0  0  0  0  0
   -5.4697   -5.9689   13.9971 H   0  0  0  0  0  0  0  0  0  0  0  0
  1  2  1  0
  1 23  1  0
  2 10  1  0
  2  3  2  0
  3  4  1  0
  4  5  2  0
  4 11  1  0
  5  6  1  0
  6 10  1  0
  6  7  1  0
  7  8  2  0
  8  9  1  0
  9 10  2  0
 11 12  2  0
 11 19  1  0
 12 13  1  0
 13 14  2  0
 14 18  1  0
 14 15  1  0
 15 16  2  0
 16 17  1  0
 17 18  1  0
 18 19  2  0
 20 25  1  0
 20 21  2  0
 20 30  1  0
 21 22  1  0
 22 23  2  0
 23 24  1  0
 24 25  2  0
 26 27  1  0
 26 32  1  0
 26 28  1  0
 26 33  1  0
 28 29  1  0
 29 30  1  0
 30 31  1  0
 31 32  1  0
  1 34  1  0
  5 35  1  0
  7 36  1  0
  8 37  1  0
 12 38  1  0
 13 39  1  0
 15 40  1  0
 17 41  1  0
 19 42  1  0
 21 43  1  0
 22 44  1  0
 24 45  1  0
 25 46  1  0
 27 47  1  0
 27 48  1  0
 27 49  1  0
 28 50  1  0
 28 51  1  0
 29 52  1  0
 29 53  1  0
 31 54  1  0
 31 55  1  0
 32 56  1  0
 32 57  1  0
 33 58  1  0
M  END
>  <s_m_entry_id>  (8) 
8

>  <MODEL>  (8) 
1

>  <REMARK>  (8) 
 VINA RESULT:    -9.966      0.000      0.000
 INTER + INTRA:         -12.424
 INTER:                 -12.005
 INTRA:                  -0.419
 UNBOUND:                -0.419
  Name = /scratch/kmzp800/tmp4orjtiox/tmpv7um8ta3.pdb
  5 active torsions:
  status: ('A' for Active; 'I' for Inactive)
    1  A    between atoms: O1_1  and  C1_2
    2  A    between atoms: C1_2  and  C2_3
    3  A    between atoms: N1_6  and  C5_7
    4  A    between atoms: C8_10  and  N2_11
    5  A    between atoms: C10_14  and  C11_15
                            x       y       z     vdW  Elec       q    Type
                         _______ _______ _______ _____ _____    ______ ____

>  <TORSDO>  (8) 
F 4

>  <grid_id>  (8) 
syk-prepared

>  <grid_path>  (8) 
syk_vina.pdbqt

>  <grid_filename>  (8) 
syk_vina.pdbqt

>  <docking_score>  (8) 
-9.966

>  <compound_name>  (8) 
CHEMBL3265031

>  <index_string>  (8) 
7:0:0

>  <s_m_Source_Path>  (8) 
/projects/mai/users/kmzp800_harry/pmx_colab/docking_jobs/syk/vina_prep/output

>  <s_m_Source_File>  (8) 
ptp1b_docked_conformers.sdf

>  <i_m_Source_File_Index>  (8) 
8

$$$$
CHEMBL3265005
     RDKit          3D

 48 51  0  0  1  0  0  0  0  0999 V2000
    5.7510   -0.5360   16.4500 C   0  0  0  0  0  0  0  0  0  0  0  0
    4.4620   -0.9300   16.2940 N   0  0  0  0  0  0  0  0  0  0  0  0
    4.0440   -0.2310   15.2250 C   0  0  0  0  0  0  0  0  0  0  0  0
    2.7790   -0.2700   14.6450 C   0  0  0  0  0  0  0  0  0  0  0  0
    1.7560   -1.1200   15.1830 N   0  0  0  0  0  0  0  0  0  0  0  0
    2.5580    0.5260   13.5560 N   0  0  0  0  0  0  0  0  0  0  0  0
    3.5280    1.3420   13.0360 C   0  0  0  0  0  0  0  0  0  0  0  0
    4.8000    1.3620   13.6430 C   0  0  0  0  0  0  0  0  0  0  0  0
    4.9920    0.5640   14.7210 N   0  0  0  0  0  0  0  0  0  0  0  0
    6.0880    0.3960   15.4720 C   0  0  0  0  0  0  0  0  0  0  0  0
    0.4140   -1.2710   14.7000 C   0  0  0  0  0  0  0  0  0  0  0  0
   -0.3370   -2.4300   14.9390 C   0  0  0  0  0  0  0  0  0  0  0  0
   -1.6400   -2.5390   14.4510 C   0  0  0  0  0  0  0  0  0  0  0  0
   -2.2150   -1.4890   13.7170 C   0  0  0  0  0  0  0  0  0  0  0  0
   -1.4690   -0.3250   13.4750 C   0  0  0  0  0  0  0  0  0  0  0  0
   -0.1580   -0.2260   13.9700 C   0  0  0  0  0  0  0  0  0  0  0  0
   -3.5200   -1.5810   13.2210 O   0  0  0  0  0  0  0  0  0  0  0  0
   -4.1760   -2.8230   13.0050 C   0  0  0  0  0  0  0  0  0  0  0  0
   -2.0480    0.7170   12.7420 O   0  0  0  0  0  0  0  0  0  0  0  0
   -1.5080    1.1860   11.5140 C   0  0  0  0  0  0  0  0  0  0  0  0
    3.2340    2.1820   11.8570 C   0  0  0  0  0  0  0  0  0  0  0  0
    4.2260    2.4120   10.8920 C   0  0  0  0  0  0  0  0  0  0  0  0
    3.9570    3.2040    9.7740 C   0  0  0  0  0  0  0  0  0  0  0  0
    2.6930    3.7750    9.6100 C   0  0  0  0  0  0  0  0  0  0  0  0
    1.6880    3.5570   10.5630 C   0  0  0  0  0  0  0  0  0  0  0  0
    1.9660    2.7600   11.6820 C   0  0  0  0  0  0  0  0  0  0  0  0
    0.3540    4.1570   10.3900 C   0  0  0  0  0  0  0  0  0  0  0  0
   -0.2240    4.7150   11.3600 O   0  0  0  0  0  0  0  0  0  0  0  0
   -0.2990    4.1120    9.1240 N   0  0  0  0  0  0  0  0  0  0  0  0
    6.4306   -0.8998   17.2347 H   0  0  0  0  0  0  0  0  0  0  0  0
    2.0135   -1.6833   16.0060 H   0  0  0  0  0  0  0  0  0  0  0  0
    5.6068    2.0017   13.2559 H   0  0  0  0  0  0  0  0  0  0  0  0
    7.0599    0.8945   15.3422 H   0  0  0  0  0  0  0  0  0  0  0  0
    0.1029   -3.2580   15.5142 H   0  0  0  0  0  0  0  0  0  0  0  0
   -2.2204   -3.4535   14.6426 H   0  0  0  0  0  0  0  0  0  0  0  0
    0.4261    0.6866   13.7803 H   0  0  0  0  0  0  0  0  0  0  0  0
   -4.4189   -3.2828   13.9743 H   0  0  0  0  0  0  0  0  0  0  0  0
   -5.1026   -2.6543   12.4367 H   0  0  0  0  0  0  0  0  0  0  0  0
   -3.5143   -3.4932   12.4367 H   0  0  0  0  0  0  0  0  0  0  0  0
   -0.6921    1.8946   11.7191 H   0  0  0  0  0  0  0  0  0  0  0  0
   -1.1180    0.3351   10.9362 H   0  0  0  0  0  0  0  0  0  0  0  0
   -2.2959    1.6913   10.9362 H   0  0  0  0  0  0  0  0  0  0  0  0
    5.2233    1.9650   11.0171 H   0  0  0  0  0  0  0  0  0  0  0  0
    4.7408    3.3783    9.0222 H   0  0  0  0  0  0  0  0  0  0  0  0
    2.4848    4.3991    8.7284 H   0  0  0  0  0  0  0  0  0  0  0  0
    1.1811    2.5850   12.4326 H   0  0  0  0  0  0  0  0  0  0  0  0
   -1.2318    4.5337    9.0104 H   0  0  0  0  0  0  0  0  0  0  0  0
    0.1619    3.6578    8.3226 H   0  0  0  0  0  0  0  0  0  0  0  0
  1  2  1  0
  1 10  2  0
  2  3  2  0
  3  4  1  0
  3  9  1  0
  4  5  1  0
  4  6  2  0
  5 11  1  0
  6  7  1  0
  7  8  2  0
  7 21  1  0
  8  9  1  0
  9 10  1  0
 11 12  2  0
 11 16  1  0
 12 13  1  0
 13 14  2  0
 14 15  1  0
 14 17  1  0
 15 16  2  0
 15 19  1  0
 17 18  1  0
 19 20  1  0
 21 22  2  0
 21 26  1  0
 22 23  1  0
 23 24  2  0
 24 25  1  0
 25 26  2  0
 25 27  1  0
 27 28  2  0
 27 29  1  0
  1 30  1  0
  5 31  1  0
  8 32  1  0
 10 33  1  0
 12 34  1  0
 13 35  1  0
 16 36  1  0
 18 37  1  0
 18 38  1  0
 18 39  1  0
 20 40  1  0
 20 41  1  0
 20 42  1  0
 22 43  1  0
 23 44  1  0
 24 45  1  0
 26 46  1  0
 29 47  1  0
 29 48  1  0
M  END
>  <s_m_entry_id>  (9) 
9

>  <MODEL>  (9) 
1

>  <REMARK>  (9) 
 VINA RESULT:    -9.632      0.000      0.000
 INTER + INTRA:         -12.954
 INTER:                 -12.448
 INTRA:                  -0.506
 UNBOUND:                -0.506
  Name = /scratch/kmzp800/tmpuc_ja5nu/tmpe7fqx7mc.pdb
  7 active torsions:
  status: ('A' for Active; 'I' for Inactive)
    1  A    between atoms: N2_5  and  C4_6
    2  A    between atoms: C7_9  and  O1_10
    3  A    between atoms: O1_10  and  C8_11
    4  A    between atoms: C9_12  and  O2_13
    5  A    between atoms: O2_13  and  C10_14
    6  A    between atoms: C12_17  and  C13_18
    7  A    between atoms: C17_22  and  C18_23
                            x       y       z     vdW  Elec       q    Type
                         _______ _______ _______ _____ _____    ______ ____

>  <TORSDO>  (9) 
F 5

>  <grid_id>  (9) 
syk-prepared

>  <grid_path>  (9) 
syk_vina.pdbqt

>  <grid_filename>  (9) 
syk_vina.pdbqt

>  <docking_score>  (9) 
-9.632

>  <compound_name>  (9) 
CHEMBL3265005

>  <index_string>  (9) 
8:0:0

>  <s_m_Source_Path>  (9) 
/projects/mai/users/kmzp800_harry/pmx_colab/docking_jobs/syk/vina_prep/output

>  <s_m_Source_File>  (9) 
ptp1b_docked_conformers.sdf

>  <i_m_Source_File_Index>  (9) 
9

$$$$
CHEMBL3265024
     RDKit          3D

 50 54  0  0  1  0  0  0  0  0999 V2000
    5.5170   -0.6700   16.2580 C   0  0  0  0  0  0  0  0  0  0  0  0
    4.2160   -1.0490   16.1860 N   0  0  0  0  0  0  0  0  0  0  0  0
    3.7220   -0.2970   15.1880 C   0  0  0  0  0  0  0  0  0  0  0  0
    2.4160   -0.3050   14.7050 C   0  0  0  0  0  0  0  0  0  0  0  0
    1.4270   -1.1620   15.2920 N   0  0  0  0  0  0  0  0  0  0  0  0
    2.1140    0.5490   13.6820 N   0  0  0  0  0  0  0  0  0  0  0  0
    3.0480    1.3850   13.1260 C   0  0  0  0  0  0  0  0  0  0  0  0
    4.3640    1.3660   13.6300 C   0  0  0  0  0  0  0  0  0  0  0  0
    4.6340    0.5140   14.6470 N   0  0  0  0  0  0  0  0  0  0  0  0
    5.7850    0.3060   15.3020 C   0  0  0  0  0  0  0  0  0  0  0  0
    2.6690    2.2920   12.0240 C   0  0  0  0  0  0  0  0  0  0  0  0
    3.6000    2.6550   11.0360 C   0  0  0  0  0  0  0  0  0  0  0  0
    3.2340    3.5170    9.9970 C   0  0  0  0  0  0  0  0  0  0  0  0
    1.9330    4.0200    9.9330 C   0  0  0  0  0  0  0  0  0  0  0  0
    1.0010    3.6710   10.9200 C   0  0  0  0  0  0  0  0  0  0  0  0
    1.3680    2.8140   11.9600 C   0  0  0  0  0  0  0  0  0  0  0  0
   -0.3080    4.2390   10.8800 N   0  0  0  0  0  0  0  0  0  0  0  0
   -0.6910    5.0720    9.7840 C   0  0  0  0  0  0  0  0  0  0  0  0
   -1.8050    5.6540    9.7980 O   0  0  0  0  0  0  0  0  0  0  0  0
    0.2020    5.1870    8.5830 C   0  0  0  0  0  0  0  0  0  0  0  0
    1.5660    4.8910    8.9010 O   0  0  0  0  0  0  0  0  0  0  0  0
    0.0920   -1.3850   14.8210 C   0  0  0  0  0  0  0  0  0  0  0  0
   -0.5140   -2.6180   15.0760 C   0  0  0  0  0  0  0  0  0  0  0  0
   -1.8070   -2.8770   14.6190 C   0  0  0  0  0  0  0  0  0  0  0  0
   -2.5140   -1.9060   13.8910 C   0  0  0  0  0  0  0  0  0  0  0  0
   -1.9090   -0.6690   13.6210 C   0  0  0  0  0  0  0  0  0  0  0  0
   -0.6090   -0.4160   14.0890 C   0  0  0  0  0  0  0  0  0  0  0  0
   -3.8100   -2.1500   13.4260 O   0  0  0  0  0  0  0  0  0  0  0  0
   -4.1970   -3.3840   12.8380 C   0  0  0  0  0  0  0  0  0  0  0  0
   -2.6160    0.2900   12.8870 O   0  0  0  0  0  0  0  0  0  0  0  0
   -1.9740    1.2560   12.0670 C   0  0  0  0  0  0  0  0  0  0  0  0
    6.2528   -1.0750   16.9683 H   0  0  0  0  0  0  0  0  0  0  0  0
    1.7060   -1.6714   16.1426 H   0  0  0  0  0  0  0  0  0  0  0  0
    5.1437    2.0198   13.2122 H   0  0  0  0  0  0  0  0  0  0  0  0
    6.7478    0.8060   15.1206 H   0  0  0  0  0  0  0  0  0  0  0  0
    4.6249    2.2580   11.0800 H   0  0  0  0  0  0  0  0  0  0  0  0
    3.9710    3.7986    9.2305 H   0  0  0  0  0  0  0  0  0  0  0  0
    0.6329    2.5467   12.7334 H   0  0  0  0  0  0  0  0  0  0  0  0
   -0.9759    4.0485   11.6406 H   0  0  0  0  0  0  0  0  0  0  0  0
   -0.1447    4.4817    7.8133 H   0  0  0  0  0  0  0  0  0  0  0  0
    0.1541    6.2246    8.2210 H   0  0  0  0  0  0  0  0  0  0  0  0
    0.0312   -3.3890   15.6402 H   0  0  0  0  0  0  0  0  0  0  0  0
   -2.2761   -3.8492   14.8306 H   0  0  0  0  0  0  0  0  0  0  0  0
   -0.1351    0.5541   13.8787 H   0  0  0  0  0  0  0  0  0  0  0  0
   -4.4253   -4.1121   13.6303 H   0  0  0  0  0  0  0  0  0  0  0  0
   -5.0896   -3.2289   12.2142 H   0  0  0  0  0  0  0  0  0  0  0  0
   -3.3757   -3.7665   12.2142 H   0  0  0  0  0  0  0  0  0  0  0  0
   -1.4769    2.0040   12.7022 H   0  0  0  0  0  0  0  0  0  0  0  0
   -1.2260    0.7589   11.4319 H   0  0  0  0  0  0  0  0  0  0  0  0
   -2.7220    1.7532   11.4319 H   0  0  0  0  0  0  0  0  0  0  0  0
  1  2  1  0
  1 10  2  0
  2  3  2  0
  3  4  1  0
  3  9  1  0
  4  5  1  0
  4  6  2  0
  5 22  1  0
  6  7  1  0
  7  8  2  0
  7 11  1  0
  8  9  1  0
  9 10  1  0
 11 12  2  0
 11 16  1  0
 12 13  1  0
 13 14  2  0
 14 15  1  0
 14 21  1  0
 15 16  2  0
 15 17  1  0
 17 18  1  0
 18 19  2  0
 18 20  1  0
 20 21  1  0
 22 23  2  0
 22 27  1  0
 23 24  1  0
 24 25  2  0
 25 26  1  0
 25 28  1  0
 26 27  2  0
 26 30  1  0
 28 29  1  0
 30 31  1  0
  1 32  1  0
  5 33  1  0
  8 34  1  0
 10 35  1  0
 12 36  1  0
 13 37  1  0
 16 38  1  0
 17 39  1  0
 20 40  1  0
 20 41  1  0
 23 42  1  0
 24 43  1  0
 27 44  1  0
 29 45  1  0
 29 46  1  0
 29 47  1  0
 31 48  1  0
 31 49  1  0
 31 50  1  0
M  END
>  <s_m_entry_id>  (10) 
10

>  <MODEL>  (10) 
1

>  <REMARK>  (10) 
 VINA RESULT:    -9.565      0.000      0.000
 INTER + INTRA:         -12.300
 INTER:                 -11.802
 INTRA:                  -0.498
 UNBOUND:                -0.498
  Name = /scratch/kmzp800/tmpvlesnc31/tmpspy7ahvg.pdb
  6 active torsions:
  status: ('A' for Active; 'I' for Inactive)
    1  A    between atoms: N2_5  and  C4_6
    2  A    between atoms: C7_9  and  O1_10
    3  A    between atoms: O1_10  and  C8_11
    4  A    between atoms: C9_12  and  O2_13
    5  A    between atoms: O2_13  and  C10_14
    6  A    between atoms: C12_17  and  C13_18
                            x       y       z     vdW  Elec       q    Type
                         _______ _______ _______ _____ _____    ______ ____

>  <TORSDO>  (10) 
F 4

>  <grid_id>  (10) 
syk-prepared

>  <grid_path>  (10) 
syk_vina.pdbqt

>  <grid_filename>  (10) 
syk_vina.pdbqt

>  <docking_score>  (10) 
-9.565

>  <compound_name>  (10) 
CHEMBL3265024

>  <index_string>  (10) 
9:0:0

>  <s_m_Source_Path>  (10) 
/projects/mai/users/kmzp800_harry/pmx_colab/docking_jobs/syk/vina_prep/output

>  <s_m_Source_File>  (10) 
ptp1b_docked_conformers.sdf

>  <i_m_Source_File_Index>  (10) 
10

$$$$
CHEMBL3265010
     RDKit          3D

 52 55  0  0  1  0  0  0  0  0999 V2000
    5.5800   -0.6460   16.3540 C   0  0  0  0  0  0  0  0  0  0  0  0
    4.2970   -1.0710   16.2200 N   0  0  0  0  0  0  0  0  0  0  0  0
    3.8160   -0.3160   15.2170 C   0  0  0  0  0  0  0  0  0  0  0  0
    2.5310   -0.3590   14.6830 C   0  0  0  0  0  0  0  0  0  0  0  0
    1.5610   -1.2770   15.2050 N   0  0  0  0  0  0  0  0  0  0  0  0
    2.2410    0.4980   13.6600 N   0  0  0  0  0  0  0  0  0  0  0  0
    3.1670    1.3790   13.1600 C   0  0  0  0  0  0  0  0  0  0  0  0
    4.4600    1.4000   13.7190 C   0  0  0  0  0  0  0  0  0  0  0  0
    4.7200    0.5390   14.7310 N   0  0  0  0  0  0  0  0  0  0  0  0
    5.8500    0.3580   15.4280 C   0  0  0  0  0  0  0  0  0  0  0  0
    0.2030   -1.4520   14.7760 C   0  0  0  0  0  0  0  0  0  0  0  0
   -0.4210   -2.6770   15.0210 C   0  0  0  0  0  0  0  0  0  0  0  0
   -1.7420   -2.8900   14.6210 C   0  0  0  0  0  0  0  0  0  0  0  0
   -2.4590   -1.8760   13.9670 C   0  0  0  0  0  0  0  0  0  0  0  0
   -1.8400   -0.6430   13.7160 C   0  0  0  0  0  0  0  0  0  0  0  0
   -0.5110   -0.4380   14.1230 C   0  0  0  0  0  0  0  0  0  0  0  0
   -3.7830   -2.0740   13.5590 O   0  0  0  0  0  0  0  0  0  0  0  0
   -4.1820   -3.1670   12.7440 C   0  0  0  0  0  0  0  0  0  0  0  0
   -2.5640    0.3610   13.0630 O   0  0  0  0  0  0  0  0  0  0  0  0
   -1.9910    1.2070   12.0760 C   0  0  0  0  0  0  0  0  0  0  0  0
    2.8070    2.2870   12.0510 C   0  0  0  0  0  0  0  0  0  0  0  0
    3.7840    2.7150   11.1470 C   0  0  0  0  0  0  0  0  0  0  0  0
    3.4510    3.5700   10.0980 C   0  0  0  0  0  0  0  0  0  0  0  0
    2.1310    4.0190    9.9280 C   0  0  0  0  0  0  0  0  0  0  0  0
    1.1330    3.5930   10.8350 C   0  0  0  0  0  0  0  0  0  0  0  0
    1.4880    2.7320   11.8840 C   0  0  0  0  0  0  0  0  0  0  0  0
   -0.2820    4.0220   10.7230 C   0  0  0  0  0  0  0  0  0  0  0  0
   -0.8680    4.5870   11.6830 O   0  0  0  0  0  0  0  0  0  0  0  0
   -1.0040    3.7990    9.5150 N   0  0  0  0  0  0  0  0  0  0  0  0
    1.8060    4.8780    8.8710 O   0  0  0  0  0  0  0  0  0  0  0  0
    2.0020    6.2850    8.9310 C   0  0  0  0  0  0  0  0  0  0  0  0
    6.3005   -1.0378   17.0870 H   0  0  0  0  0  0  0  0  0  0  0  0
    1.8756   -1.8810   15.9777 H   0  0  0  0  0  0  0  0  0  0  0  0
    5.2306    2.0911   13.3467 H   0  0  0  0  0  0  0  0  0  0  0  0
    6.8007    0.8951   15.2952 H   0  0  0  0  0  0  0  0  0  0  0  0
    0.1314   -3.4792   15.5322 H   0  0  0  0  0  0  0  0  0  0  0  0
   -2.2237   -3.8587   14.8198 H   0  0  0  0  0  0  0  0  0  0  0  0
   -0.0253    0.5293   13.9269 H   0  0  0  0  0  0  0  0  0  0  0  0
   -4.4890   -4.0080   13.3831 H   0  0  0  0  0  0  0  0  0  0  0  0
   -5.0267   -2.8617   12.1089 H   0  0  0  0  0  0  0  0  0  0  0  0
   -3.3393   -3.4776   12.1089 H   0  0  0  0  0  0  0  0  0  0  0  0
   -1.4391    2.0219   12.5672 H   0  0  0  0  0  0  0  0  0  0  0  0
   -1.3015    0.6234   11.4483 H   0  0  0  0  0  0  0  0  0  0  0  0
   -2.7888    1.6307   11.4483 H   0  0  0  0  0  0  0  0  0  0  0  0
    4.8233    2.3743   11.2646 H   0  0  0  0  0  0  0  0  0  0  0  0
    4.2311    3.8971    9.3949 H   0  0  0  0  0  0  0  0  0  0  0  0
    0.7143    2.3986   12.5913 H   0  0  0  0  0  0  0  0  0  0  0  0
   -1.9868    4.0979    9.4398 H   0  0  0  0  0  0  0  0  0  0  0  0
   -0.5431    3.3389    8.7170 H   0  0  0  0  0  0  0  0  0  0  0  0
    2.0465    6.6045    9.9826 H   0  0  0  0  0  0  0  0  0  0  0  0
    2.9451    6.5456    8.4284 H   0  0  0  0  0  0  0  0  0  0  0  0
    1.1660    6.7934    8.4284 H   0  0  0  0  0  0  0  0  0  0  0  0
  1  2  1  0
  1 10  2  0
  2  3  2  0
  3  4  1  0
  3  9  1  0
  4  5  1  0
  4  6  2  0
  5 11  1  0
  6  7  1  0
  7  8  2  0
  7 21  1  0
  8  9  1  0
  9 10  1  0
 11 12  2  0
 11 16  1  0
 12 13  1  0
 13 14  2  0
 14 15  1  0
 14 17  1  0
 15 16  2  0
 15 19  1  0
 17 18  1  0
 19 20  1  0
 21 22  2  0
 21 26  1  0
 22 23  1  0
 23 24  2  0
 24 25  1  0
 24 30  1  0
 25 26  2  0
 25 27  1  0
 27 28  2  0
 27 29  1  0
 30 31  1  0
  1 32  1  0
  5 33  1  0
  8 34  1  0
 10 35  1  0
 12 36  1  0
 13 37  1  0
 16 38  1  0
 18 39  1  0
 18 40  1  0
 18 41  1  0
 20 42  1  0
 20 43  1  0
 20 44  1  0
 22 45  1  0
 23 46  1  0
 26 47  1  0
 29 48  1  0
 29 49  1  0
 31 50  1  0
 31 51  1  0
 31 52  1  0
M  END
>  <s_m_entry_id>  (11) 
11

>  <MODEL>  (11) 
1

>  <REMARK>  (11) 
 VINA RESULT:    -9.128      0.000      0.000
 INTER + INTRA:         -13.259
 INTER:                 -12.330
 INTRA:                  -0.929
 UNBOUND:                -0.929
  Name = /scratch/kmzp800/tmp61z2_upw/tmpk4fmqu7x.pdb
  9 active torsions:
  status: ('A' for Active; 'I' for Inactive)
    1  A    between atoms: N2_5  and  C4_6
    2  A    between atoms: C7_9  and  O1_10
    3  A    between atoms: O1_10  and  C8_11
    4  A    between atoms: C9_12  and  O2_13
    5  A    between atoms: O2_13  and  C10_14
    6  A    between atoms: C12_17  and  C13_18
    7  A    between atoms: C16_21  and  O3_22
    8  A    between atoms: O3_22  and  C17_23
    9  A    between atoms: C18_24  and  C19_25
                            x       y       z     vdW  Elec       q    Type
                         _______ _______ _______ _____ _____    ______ ____

>  <TORSDO>  (11) 
F 6

>  <grid_id>  (11) 
syk-prepared

>  <grid_path>  (11) 
syk_vina.pdbqt

>  <grid_filename>  (11) 
syk_vina.pdbqt

>  <docking_score>  (11) 
-9.128

>  <compound_name>  (11) 
CHEMBL3265010

>  <index_string>  (11) 
10:0:0

>  <s_m_Source_Path>  (11) 
/projects/mai/users/kmzp800_harry/pmx_colab/docking_jobs/syk/vina_prep/output

>  <s_m_Source_File>  (11) 
ptp1b_docked_conformers.sdf

>  <i_m_Source_File_Index>  (11) 
11

$$$$
CHEMBL3265014
     RDKit          3D

 52 55  0  0  1  0  0  0  0  0999 V2000
    5.6370   -0.5690   16.2520 C   0  0  0  0  0  0  0  0  0  0  0  0
    4.3920   -1.1090   16.2250 N   0  0  0  0  0  0  0  0  0  0  0  0
    3.7620   -0.4010   15.2710 C   0  0  0  0  0  0  0  0  0  0  0  0
    2.4440   -0.5610   14.8480 C   0  0  0  0  0  0  0  0  0  0  0  0
    1.6090   -1.5630   15.4440 N   0  0  0  0  0  0  0  0  0  0  0  0
    1.9920    0.2660   13.8580 N   0  0  0  0  0  0  0  0  0  0  0  0
    2.7890    1.2240   13.2870 C   0  0  0  0  0  0  0  0  0  0  0  0
    4.1170    1.3630   13.7340 C   0  0  0  0  0  0  0  0  0  0  0  0
    4.5390    0.5320   14.7160 N   0  0  0  0  0  0  0  0  0  0  0  0
    5.7350    0.4550   15.3120 C   0  0  0  0  0  0  0  0  0  0  0  0
    0.2410   -1.8590   15.1310 C   0  0  0  0  0  0  0  0  0  0  0  0
   -0.2700   -3.1080   15.4920 C   0  0  0  0  0  0  0  0  0  0  0  0
   -1.5950   -3.4390   15.2060 C   0  0  0  0  0  0  0  0  0  0  0  0
   -2.4330   -2.5220   14.5530 C   0  0  0  0  0  0  0  0  0  0  0  0
   -1.9290   -1.2650   14.1860 C   0  0  0  0  0  0  0  0  0  0  0  0
   -0.5930   -0.9400   14.4780 C   0  0  0  0  0  0  0  0  0  0  0  0
   -3.7650   -2.8370   14.2600 O   0  0  0  0  0  0  0  0  0  0  0  0
   -4.7840   -2.8660   15.2490 C   0  0  0  0  0  0  0  0  0  0  0  0
   -2.7730   -0.3580   13.5370 O   0  0  0  0  0  0  0  0  0  0  0  0
   -2.3070    0.5690   12.5660 C   0  0  0  0  0  0  0  0  0  0  0  0
    2.2560    2.0950   12.2190 C   0  0  0  0  0  0  0  0  0  0  0  0
    3.1270    2.7190   11.3200 C   0  0  0  0  0  0  0  0  0  0  0  0
    2.6310    3.5420   10.3100 C   0  0  0  0  0  0  0  0  0  0  0  0
    1.2530    3.7640   10.1680 C   0  0  0  0  0  0  0  0  0  0  0  0
    0.3620    3.1370   11.0720 C   0  0  0  0  0  0  0  0  0  0  0  0
    0.8780    2.3100   12.0850 C   0  0  0  0  0  0  0  0  0  0  0  0
    0.7940    4.6510    9.0700 C   0  0  0  0  0  0  0  0  0  0  0  0
    1.3370    5.7750    8.9030 O   0  0  0  0  0  0  0  0  0  0  0  0
   -0.2560    4.2630    8.1890 N   0  0  0  0  0  0  0  0  0  0  0  0
   -1.0200    3.3350   10.9610 O   0  0  0  0  0  0  0  0  0  0  0  0
   -1.7440    4.2220   11.8030 C   0  0  0  0  0  0  0  0  0  0  0  0
    6.4500   -0.8925   16.9186 H   0  0  0  0  0  0  0  0  0  0  0  0
    2.0417   -2.1364   16.1822 H   0  0  0  0  0  0  0  0  0  0  0  0
    4.7876    2.1197   13.3008 H   0  0  0  0  0  0  0  0  0  0  0  0
    6.6184    1.0758   15.1018 H   0  0  0  0  0  0  0  0  0  0  0  0
    0.3764   -3.8353   16.0051 H   0  0  0  0  0  0  0  0  0  0  0  0
   -1.9856   -4.4260   15.4945 H   0  0  0  0  0  0  0  0  0  0  0  0
   -0.1975    0.0456   14.1913 H   0  0  0  0  0  0  0  0  0  0  0  0
   -4.3252   -2.8529   16.2487 H   0  0  0  0  0  0  0  0  0  0  0  0
   -5.4335   -1.9860   15.1321 H   0  0  0  0  0  0  0  0  0  0  0  0
   -5.3824   -3.7815   15.1321 H   0  0  0  0  0  0  0  0  0  0  0  0
   -1.8685    1.4413   13.0727 H   0  0  0  0  0  0  0  0  0  0  0  0
   -1.5434    0.0882   11.9368 H   0  0  0  0  0  0  0  0  0  0  0  0
   -3.1484    0.8950   11.9368 H   0  0  0  0  0  0  0  0  0  0  0  0
    4.2115    2.5592   11.4106 H   0  0  0  0  0  0  0  0  0  0  0  0
    3.3315    4.0252    9.6130 H   0  0  0  0  0  0  0  0  0  0  0  0
    0.1858    1.8218   12.7867 H   0  0  0  0  0  0  0  0  0  0  0  0
   -0.5561    4.8970    7.4347 H   0  0  0  0  0  0  0  0  0  0  0  0
   -0.7152    3.3485    8.3063 H   0  0  0  0  0  0  0  0  0  0  0  0
   -1.5423    3.9748   12.8557 H   0  0  0  0  0  0  0  0  0  0  0  0
   -1.4293    5.2568   11.6025 H   0  0  0  0  0  0  0  0  0  0  0  0
   -2.8208    4.1209   11.6025 H   0  0  0  0  0  0  0  0  0  0  0  0
  1  2  1  0
  1 10  2  0
  2  3  2  0
  3  4  1  0
  3  9  1  0
  4  5  1  0
  4  6  2  0
  5 11  1  0
  6  7  1  0
  7  8  2  0
  7 21  1  0
  8  9  1  0
  9 10  1  0
 11 12  2  0
 11 16  1  0
 12 13  1  0
 13 14  2  0
 14 15  1  0
 14 17  1  0
 15 16  2  0
 15 19  1  0
 17 18  1  0
 19 20  1  0
 21 22  2  0
 21 26  1  0
 22 23  1  0
 23 24  2  0
 24 25  1  0
 24 27  1  0
 25 26  2  0
 25 30  1  0
 27 28  2  0
 27 29  1  0
 30 31  1  0
  1 32  1  0
  5 33  1  0
  8 34  1  0
 10 35  1  0
 12 36  1  0
 13 37  1  0
 16 38  1  0
 18 39  1  0
 18 40  1  0
 18 41  1  0
 20 42  1  0
 20 43  1  0
 20 44  1  0
 22 45  1  0
 23 46  1  0
 26 47  1  0
 29 48  1  0
 29 49  1  0
 31 50  1  0
 31 51  1  0
 31 52  1  0
M  END
>  <s_m_entry_id>  (12) 
12

>  <MODEL>  (12) 
1

>  <REMARK>  (12) 
 VINA RESULT:    -8.693      0.000      0.000
 INTER + INTRA:         -12.627
 INTER:                 -11.742
 INTRA:                  -0.885
 UNBOUND:                -0.885
  Name = /scratch/kmzp800/tmprs1nzm1c/tmpzx2v31o_.pdb
  9 active torsions:
  status: ('A' for Active; 'I' for Inactive)
    1  A    between atoms: N2_5  and  C4_6
    2  A    between atoms: C7_9  and  O1_10
    3  A    between atoms: O1_10  and  C8_11
    4  A    between atoms: C9_12  and  O2_13
    5  A    between atoms: O2_13  and  C10_14
    6  A    between atoms: C12_17  and  C13_18
    7  A    between atoms: C16_21  and  C17_22
    8  A    between atoms: C18_25  and  O4_26
    9  A    between atoms: O4_26  and  C19_27
                            x       y       z     vdW  Elec       q    Type
                         _______ _______ _______ _____ _____    ______ ____

>  <TORSDO>  (12) 
F 6

>  <grid_id>  (12) 
syk-prepared

>  <grid_path>  (12) 
syk_vina.pdbqt

>  <grid_filename>  (12) 
syk_vina.pdbqt

>  <docking_score>  (12) 
-8.693

>  <compound_name>  (12) 
CHEMBL3265014

>  <index_string>  (12) 
11:0:0

>  <s_m_Source_Path>  (12) 
/projects/mai/users/kmzp800_harry/pmx_colab/docking_jobs/syk/vina_prep/output

>  <s_m_Source_File>  (12) 
ptp1b_docked_conformers.sdf

>  <i_m_Source_File_Index>  (12) 
12

$$$$
CHEMBL3265023
     RDKit          3D

 50 54  0  0  1  0  0  0  0  0999 V2000
    6.2640    0.3110   15.7660 C   0  0  0  0  0  0  0  0  0  0  0  0
    5.7540    1.0530   14.7520 N   0  0  0  0  0  0  0  0  0  0  0  0
    4.5010    0.5870   14.6170 C   0  0  0  0  0  0  0  0  0  0  0  0
    3.5450    1.0190   13.7020 C   0  0  0  0  0  0  0  0  0  0  0  0
    3.8540    2.0670   12.7730 N   0  0  0  0  0  0  0  0  0  0  0  0
    2.3200    0.4100   13.7280 N   0  0  0  0  0  0  0  0  0  0  0  0
    2.0240   -0.5930   14.6170 C   0  0  0  0  0  0  0  0  0  0  0  0
    3.0120   -1.0080   15.5310 C   0  0  0  0  0  0  0  0  0  0  0  0
    4.2140   -0.3880   15.4810 N   0  0  0  0  0  0  0  0  0  0  0  0
    5.3080   -0.5910   16.2260 C   0  0  0  0  0  0  0  0  0  0  0  0
    0.6870   -1.2230   14.6100 C   0  0  0  0  0  0  0  0  0  0  0  0
    0.4280   -2.3720   15.4040 C   0  0  0  0  0  0  0  0  0  0  0  0
   -0.8390   -2.9840   15.4080 C   0  0  0  0  0  0  0  0  0  0  0  0
   -1.8210   -2.4130   14.6030 C   0  0  0  0  0  0  0  0  0  0  0  0
   -1.5840   -1.3110   13.8370 C   0  0  0  0  0  0  0  0  0  0  0  0
   -2.7660   -1.0270   13.1790 C   0  0  0  0  0  0  0  0  0  0  0  0
   -3.6730   -1.9610   13.5680 N   0  0  0  0  0  0  0  0  0  0  0  0
   -3.0940   -2.7930   14.4260 N   0  0  0  0  0  0  0  0  0  0  0  0
   -3.7650   -3.9190   15.0500 C   0  0  0  0  0  0  0  0  0  0  0  0
   -0.3430   -0.6820   13.8100 C   0  0  0  0  0  0  0  0  0  0  0  0
    2.9990    2.6320   11.7710 C   0  0  0  0  0  0  0  0  0  0  0  0
    3.5760    3.0950   10.5870 C   0  0  0  0  0  0  0  0  0  0  0  0
    2.7820    3.6530    9.5820 C   0  0  0  0  0  0  0  0  0  0  0  0
    1.3930    3.7560    9.7500 C   0  0  0  0  0  0  0  0  0  0  0  0
    0.8030    3.2940   10.9370 C   0  0  0  0  0  0  0  0  0  0  0  0
    1.6100    2.7330   11.9420 C   0  0  0  0  0  0  0  0  0  0  0  0
    0.5820    4.3120    8.7550 O   0  0  0  0  0  0  0  0  0  0  0  0
    0.1870    5.6780    8.7580 C   0  0  0  0  0  0  0  0  0  0  0  0
   -0.5830    3.4020   11.0930 O   0  0  0  0  0  0  0  0  0  0  0  0
   -1.3090    2.6570   12.0610 C   0  0  0  0  0  0  0  0  0  0  0  0
    7.2839    0.4075   16.1666 H   0  0  0  0  0  0  0  0  0  0  0  0
    4.8039    2.4607   12.8331 H   0  0  0  0  0  0  0  0  0  0  0  0
    2.8137   -1.8078   16.2597 H   0  0  0  0  0  0  0  0  0  0  0  0
    5.4275   -1.3232   17.0382 H   0  0  0  0  0  0  0  0  0  0  0  0
    1.2322   -2.7908   16.0268 H   0  0  0  0  0  0  0  0  0  0  0  0
   -1.0446   -3.8744   16.0202 H   0  0  0  0  0  0  0  0  0  0  0  0
   -2.9396   -0.2009   12.4737 H   0  0  0  0  0  0  0  0  0  0  0  0
   -3.7063   -3.8205   16.1440 H   0  0  0  0  0  0  0  0  0  0  0  0
   -4.8201   -3.9351   14.7394 H   0  0  0  0  0  0  0  0  0  0  0  0
   -3.2770   -4.8546   14.7394 H   0  0  0  0  0  0  0  0  0  0  0  0
   -0.1702    0.2073   13.1860 H   0  0  0  0  0  0  0  0  0  0  0  0
    4.6641    3.0199   10.4443 H   0  0  0  0  0  0  0  0  0  0  0  0
    3.2487    4.0137    8.6535 H   0  0  0  0  0  0  0  0  0  0  0  0
    1.1480    2.3696   12.8718 H   0  0  0  0  0  0  0  0  0  0  0  0
    0.0858    6.0281    9.7959 H   0  0  0  0  0  0  0  0  0  0  0  0
    0.9476    6.2808    8.2402 H   0  0  0  0  0  0  0  0  0  0  0  0
   -0.7780    5.7818    8.2402 H   0  0  0  0  0  0  0  0  0  0  0  0
   -1.0033    2.9707   13.0700 H   0  0  0  0  0  0  0  0  0  0  0  0
   -2.3861    2.8386   11.9312 H   0  0  0  0  0  0  0  0  0  0  0  0
   -1.0996    1.5849   11.9312 H   0  0  0  0  0  0  0  0  0  0  0  0
  1 10  2  0
  1  2  1  0
  2  3  2  0
  3  9  1  0
  3  4  1  0
  4  6  2  0
  4  5  1  0
  5 21  1  0
  6  7  1  0
  7  8  2  0
  7 11  1  0
  8  9  1  0
  9 10  1  0
 11 12  2  0
 11 20  1  0
 12 13  1  0
 13 14  2  0
 14 15  1  0
 14 18  1  0
 15 16  1  0
 15 20  2  0
 16 17  2  0
 17 18  1  0
 18 19  1  0
 21 26  1  0
 21 22  2  0
 22 23  1  0
 23 24  2  0
 24 25  1  0
 24 27  1  0
 25 29  1  0
 25 26  2  0
 27 28  1  0
 29 30  1  0
  1 31  1  0
  5 32  1  0
  8 33  1  0
 10 34  1  0
 12 35  1  0
 13 36  1  0
 16 37  1  0
 19 38  1  0
 19 39  1  0
 19 40  1  0
 20 41  1  0
 22 42  1  0
 23 43  1  0
 26 44  1  0
 28 45  1  0
 28 46  1  0
 28 47  1  0
 30 48  1  0
 30 49  1  0
 30 50  1  0
M  END
>  <s_m_entry_id>  (13) 
13

>  <MODEL>  (13) 
1

>  <REMARK>  (13) 
 VINA RESULT:    -9.040      0.000      0.000
 INTER + INTRA:         -11.678
 INTER:                 -11.154
 INTRA:                  -0.525
 UNBOUND:                -0.525
  Name = /scratch/kmzp800/tmp4jr4ez1e/tmpvwjq543y.pdb
  7 active torsions:
  status: ('A' for Active; 'I' for Inactive)
    1  A    between atoms: N2_5  and  C4_6
    2  A    between atoms: C7_9  and  O1_10
    3  A    between atoms: O1_10  and  C8_11
    4  A    between atoms: C9_12  and  O2_13
    5  A    between atoms: O2_13  and  C10_14
    6  A    between atoms: C12_17  and  C13_18
    7  A    between atoms: N5_25  and  C19_26
                            x       y       z     vdW  Elec       q    Type
                         _______ _______ _______ _____ _____    ______ ____

>  <TORSDO>  (13) 
F 4

>  <grid_id>  (13) 
syk-prepared

>  <grid_path>  (13) 
syk_vina.pdbqt

>  <grid_filename>  (13) 
syk_vina.pdbqt

>  <docking_score>  (13) 
-9.04

>  <compound_name>  (13) 
CHEMBL3265023

>  <index_string>  (13) 
12:0:0

>  <s_m_Source_Path>  (13) 
/projects/mai/users/kmzp800_harry/pmx_colab/docking_jobs/syk/vina_prep/output

>  <s_m_Source_File>  (13) 
ptp1b_docked_conformers.sdf

>  <i_m_Source_File_Index>  (13) 
13

$$$$
CHEMBL3264997
     RDKit          3D

 61 65  0  0  1  0  0  0  0  0999 V2000
    3.9290    4.1210    9.5100 C   0  0  0  0  0  0  0  0  0  0  0  0
    2.6770    4.5730    9.7720 N   0  0  0  0  0  0  0  0  0  0  0  0
    2.2030    3.6900   10.6670 C   0  0  0  0  0  0  0  0  0  0  0  0
    0.9440    3.7010   11.2640 C   0  0  0  0  0  0  0  0  0  0  0  0
    0.0030    4.7330   10.9390 N   0  0  0  0  0  0  0  0  0  0  0  0
    0.6530    2.7050   12.1540 N   0  0  0  0  0  0  0  0  0  0  0  0
    1.5560    1.7190   12.4630 C   0  0  0  0  0  0  0  0  0  0  0  0
    2.8220    1.7330   11.8430 C   0  0  0  0  0  0  0  0  0  0  0  0
    3.0810    2.7300   10.9670 N   0  0  0  0  0  0  0  0  0  0  0  0
    4.1880    2.9710   10.2520 C   0  0  0  0  0  0  0  0  0  0  0  0
   -1.3260    4.9020   11.4510 C   0  0  0  0  0  0  0  0  0  0  0  0
   -1.7620    6.1080   12.0150 C   0  0  0  0  0  0  0  0  0  0  0  0
   -3.0680    6.2250   12.5000 C   0  0  0  0  0  0  0  0  0  0  0  0
   -3.9530    5.1370   12.4280 C   0  0  0  0  0  0  0  0  0  0  0  0
   -3.5210    3.9280   11.8640 C   0  0  0  0  0  0  0  0  0  0  0  0
   -2.2080    3.8220   11.3790 C   0  0  0  0  0  0  0  0  0  0  0  0
   -5.2640    5.2300   12.9080 O   0  0  0  0  0  0  0  0  0  0  0  0
   -6.3360    5.7460   12.1300 C   0  0  0  0  0  0  0  0  0  0  0  0
   -4.4080    2.8490   11.7950 O   0  0  0  0  0  0  0  0  0  0  0  0
   -4.9570    2.3810   10.5700 C   0  0  0  0  0  0  0  0  0  0  0  0
    1.2050    0.6590   13.4310 C   0  0  0  0  0  0  0  0  0  0  0  0
    2.1620    0.1690   14.3330 C   0  0  0  0  0  0  0  0  0  0  0  0
    1.8310   -0.8320   15.2480 C   0  0  0  0  0  0  0  0  0  0  0  0
    0.5370   -1.3540   15.2690 C   0  0  0  0  0  0  0  0  0  0  0  0
   -0.4350   -0.8800   14.3790 C   0  0  0  0  0  0  0  0  0  0  0  0
   -0.0940    0.1260   13.4620 C   0  0  0  0  0  0  0  0  0  0  0  0
   -1.7990   -1.4360   14.4090 C   0  0  0  0  0  0  0  0  0  0  0  0
   -2.6840   -0.9560   13.6470 O   0  0  0  0  0  0  0  0  0  0  0  0
   -2.1120   -2.5150   15.3020 N   0  0  0  0  0  0  0  0  0  0  0  0
   -3.3830   -3.1610   15.4490 C   0  0  0  0  0  0  0  0  0  0  0  0
   -3.5900   -4.3920   14.8200 C   0  0  0  0  0  0  0  0  0  0  0  0
   -4.8160   -5.0530   14.9400 C   0  0  0  0  0  0  0  0  0  0  0  0
   -5.8450   -4.4830   15.6940 C   0  0  0  0  0  0  0  0  0  0  0  0
   -5.6550   -3.2510   16.3310 C   0  0  0  0  0  0  0  0  0  0  0  0
   -4.4230   -2.5960   16.2040 C   0  0  0  0  0  0  0  0  0  0  0  0
   -6.7410   -2.6530   17.1240 C   0  0  0  0  0  0  0  0  0  0  0  0
   -7.3050   -3.3140   18.0360 O   0  0  0  0  0  0  0  0  0  0  0  0
   -7.1560   -1.3500   16.8720 O   0  0  0  0  0  0  0  0  0  0  0  0
    4.6366    4.5938    8.8131 H   0  0  0  0  0  0  0  0  0  0  0  0
    0.3192    5.4367   10.2566 H   0  0  0  0  0  0  0  0  0  0  0  0
    3.5728    0.9600   12.0641 H   0  0  0  0  0  0  0  0  0  0  0  0
    5.1154    2.3794   10.2511 H   0  0  0  0  0  0  0  0  0  0  0  0
   -1.0751    6.9650   12.0764 H   0  0  0  0  0  0  0  0  0  0  0  0
   -3.4044    7.1751   12.9407 H   0  0  0  0  0  0  0  0  0  0  0  0
   -1.8690    2.8741   10.9357 H   0  0  0  0  0  0  0  0  0  0  0  0
   -7.1239    6.1253   12.7973 H   0  0  0  0  0  0  0  0  0  0  0  0
   -5.9673    6.5653   11.4953 H   0  0  0  0  0  0  0  0  0  0  0  0
   -6.7463    4.9467   11.4953 H   0  0  0  0  0  0  0  0  0  0  0  0
   -5.7787    1.6806   10.7803 H   0  0  0  0  0  0  0  0  0  0  0  0
   -5.3412    3.2337    9.9909 H   0  0  0  0  0  0  0  0  0  0  0  0
   -4.1759    1.8667    9.9909 H   0  0  0  0  0  0  0  0  0  0  0  0
    3.1831    0.5778   14.3189 H   0  0  0  0  0  0  0  0  0  0  0  0
    2.5886   -1.2085   15.9510 H   0  0  0  0  0  0  0  0  0  0  0  0
    0.2785   -2.1436   15.9899 H   0  0  0  0  0  0  0  0  0  0  0  0
   -0.8527    0.5014   12.7595 H   0  0  0  0  0  0  0  0  0  0  0  0
   -1.3457   -2.8601   15.8975 H   0  0  0  0  0  0  0  0  0  0  0  0
   -2.7820   -4.8441   14.2260 H   0  0  0  0  0  0  0  0  0  0  0  0
   -4.9705   -6.0212   14.4412 H   0  0  0  0  0  0  0  0  0  0  0  0
   -6.8089   -5.0047   15.7875 H   0  0  0  0  0  0  0  0  0  0  0  0
   -4.2688   -1.6273   16.7019 H   0  0  0  0  0  0  0  0  0  0  0  0
   -8.0348   -2.9046   18.5651 H   0  0  0  0  0  0  0  0  0  0  0  0
  1  2  1  0
  1 10  2  0
  2  3  2  0
  3  9  1  0
  3  4  1  0
  4  6  2  0
  4  5  1  0
  5 11  1  0
  6  7  1  0
  7 21  1  0
  7  8  2  0
  8  9  1  0
  9 10  1  0
 11 12  2  0
 11 16  1  0
 12 13  1  0
 13 14  2  0
 14 17  1  0
 14 15  1  0
 15 16  2  0
 15 19  1  0
 17 18  1  0
 19 20  1  0
 21 26  1  0
 21 22  2  0
 22 23  1  0
 23 24  2  0
 24 25  1  0
 25 27  1  0
 25 26  2  0
 27 29  1  0
 27 28  2  0
 29 30  1  0
 30 35  1  0
 30 31  2  0
 31 32  1  0
 32 33  2  0
 33 34  1  0
 34 36  1  0
 34 35  2  0
 36 37  1  0
 36 38  2  0
  1 39  1  0
  5 40  1  0
  8 41  1  0
 10 42  1  0
 12 43  1  0
 13 44  1  0
 16 45  1  0
 18 46  1  0
 18 47  1  0
 18 48  1  0
 20 49  1  0
 20 50  1  0
 20 51  1  0
 22 52  1  0
 23 53  1  0
 24 54  1  0
 26 55  1  0
 29 56  1  0
 31 57  1  0
 32 58  1  0
 33 59  1  0
 35 60  1  0
 37 61  1  0
M  END
>  <s_m_entry_id>  (14) 
14

>  <MODEL>  (14) 
1

>  <REMARK>  (14) 
 VINA RESULT:    -8.996      0.000      0.000
 INTER + INTRA:         -13.803
 INTER:                 -12.677
 INTRA:                  -1.126
 UNBOUND:                -1.126
  Name = /scratch/kmzp800/tmpxgy0ip6g/tmpr4t_q3sj.pdb
  9 active torsions:
  status: ('A' for Active; 'I' for Inactive)
    1  A    between atoms: N2_5  and  C4_6
    2  A    between atoms: C7_9  and  O1_10
    3  A    between atoms: O1_10  and  C8_11
    4  A    between atoms: C9_12  and  O2_13
    5  A    between atoms: O2_13  and  C10_14
    6  A    between atoms: C12_17  and  C13_18
    7  A    between atoms: C17_22  and  C18_23
    8  A    between atoms: N4_25  and  C19_26
    9  A    between atoms: C23_30  and  C24_31
                            x       y       z     vdW  Elec       q    Type
                         _______ _______ _______ _____ _____    ______ ____

>  <TORSDO>  (14) 
F 7

>  <grid_id>  (14) 
syk-prepared

>  <grid_path>  (14) 
syk_vina.pdbqt

>  <grid_filename>  (14) 
syk_vina.pdbqt

>  <docking_score>  (14) 
-8.996

>  <compound_name>  (14) 
CHEMBL3264997

>  <index_string>  (14) 
13:0:0

>  <s_m_Source_Path>  (14) 
/projects/mai/users/kmzp800_harry/pmx_colab/docking_jobs/syk/vina_prep/output

>  <s_m_Source_File>  (14) 
ptp1b_docked_conformers.sdf

>  <i_m_Source_File_Index>  (14) 
14

$$$$
CHEMBL3264998
     RDKit          3D

 64 68  0  0  1  0  0  0  0  0999 V2000
    5.5990   -0.6120   16.5260 C   0  0  0  0  0  0  0  0  0  0  0  0
    4.2740   -0.8840   16.4230 N   0  0  0  0  0  0  0  0  0  0  0  0
    3.8930   -0.1920   15.3360 C   0  0  0  0  0  0  0  0  0  0  0  0
    2.6150   -0.1350   14.7880 C   0  0  0  0  0  0  0  0  0  0  0  0
    1.5180   -0.8330   15.3940 N   0  0  0  0  0  0  0  0  0  0  0  0
    2.4360    0.6430   13.6810 N   0  0  0  0  0  0  0  0  0  0  0  0
    3.4630    1.3380   13.0990 C   0  0  0  0  0  0  0  0  0  0  0  0
    4.7490    1.2540   13.6650 C   0  0  0  0  0  0  0  0  0  0  0  0
    4.8980    0.4830   14.7690 N   0  0  0  0  0  0  0  0  0  0  0  0
    5.9960    0.2400   15.4970 C   0  0  0  0  0  0  0  0  0  0  0  0
    0.2320   -1.0390   14.7940 C   0  0  0  0  0  0  0  0  0  0  0  0
   -0.3900   -2.2820   14.9290 C   0  0  0  0  0  0  0  0  0  0  0  0
   -1.6380   -2.5140   14.3460 C   0  0  0  0  0  0  0  0  0  0  0  0
   -2.2770   -1.5050   13.6070 C   0  0  0  0  0  0  0  0  0  0  0  0
   -1.6480   -0.2620   13.4450 C   0  0  0  0  0  0  0  0  0  0  0  0
   -0.3980   -0.0380   14.0430 C   0  0  0  0  0  0  0  0  0  0  0  0
   -3.5300   -1.7170   13.0210 O   0  0  0  0  0  0  0  0  0  0  0  0
   -4.1660   -2.9870   13.0030 C   0  0  0  0  0  0  0  0  0  0  0  0
   -2.2760    0.7320   12.6860 O   0  0  0  0  0  0  0  0  0  0  0  0
   -1.7630    1.1880   11.4420 C   0  0  0  0  0  0  0  0  0  0  0  0
    3.1970    2.1660   11.9040 C   0  0  0  0  0  0  0  0  0  0  0  0
    4.2210    2.5030   11.0060 C   0  0  0  0  0  0  0  0  0  0  0  0
    3.9420    3.2860    9.8820 C   0  0  0  0  0  0  0  0  0  0  0  0
    2.6400    3.7410    9.6490 C   0  0  0  0  0  0  0  0  0  0  0  0
    1.6090    3.4160   10.5400 C   0  0  0  0  0  0  0  0  0  0  0  0
    1.8970    2.6300   11.6610 C   0  0  0  0  0  0  0  0  0  0  0  0
    0.2340    3.8910   10.3110 C   0  0  0  0  0  0  0  0  0  0  0  0
   -0.3780    3.5640    9.2580 O   0  0  0  0  0  0  0  0  0  0  0  0
   -0.3940    4.7320   11.2910 N   0  0  0  0  0  0  0  0  0  0  0  0
   -1.7470    5.2030   11.2890 C   0  0  0  0  0  0  0  0  0  0  0  0
   -2.1650    6.2630   10.4700 C   0  0  0  0  0  0  0  0  0  0  0  0
   -3.4990    6.6820   10.4840 C   0  0  0  0  0  0  0  0  0  0  0  0
   -4.4240    6.0460   11.3180 C   0  0  0  0  0  0  0  0  0  0  0  0
   -4.0140    4.9850   12.1310 C   0  0  0  0  0  0  0  0  0  0  0  0
   -2.6810    4.5670   12.1160 C   0  0  0  0  0  0  0  0  0  0  0  0
   -5.8500    6.4790   11.3180 C   0  0  0  0  0  0  0  0  0  0  0  0
   -6.5490    5.9780   12.5350 C   0  0  0  0  0  0  0  0  0  0  0  0
   -6.3170    6.5050   13.6550 O   0  0  0  0  0  0  0  0  0  0  0  0
   -7.4830    4.9570   12.4300 O   0  0  0  0  0  0  0  0  0  0  0  0
    6.2638   -1.0068   17.3084 H   0  0  0  0  0  0  0  0  0  0  0  0
    1.6663   -1.2179   16.3378 H   0  0  0  0  0  0  0  0  0  0  0  0
    5.6013    1.7943   13.2272 H   0  0  0  0  0  0  0  0  0  0  0  0
    7.0075    0.6337   15.3185 H   0  0  0  0  0  0  0  0  0  0  0  0
    0.1055   -3.0828   15.4975 H   0  0  0  0  0  0  0  0  0  0  0  0
   -2.1236   -3.4936   14.4665 H   0  0  0  0  0  0  0  0  0  0  0  0
    0.0943    0.9380   13.9202 H   0  0  0  0  0  0  0  0  0  0  0  0
   -4.3361   -3.3266   14.0354 H   0  0  0  0  0  0  0  0  0  0  0  0
   -5.1303   -2.9068   12.4798 H   0  0  0  0  0  0  0  0  0  0  0  0
   -3.5242   -3.7111   12.4798 H   0  0  0  0  0  0  0  0  0  0  0  0
   -0.9519    1.9090   11.6220 H   0  0  0  0  0  0  0  0  0  0  0  0
   -1.3733    0.3328   10.8705 H   0  0  0  0  0  0  0  0  0  0  0  0
   -2.5666    1.6753   10.8705 H   0  0  0  0  0  0  0  0  0  0  0  0
    5.2469    2.1499   11.1870 H   0  0  0  0  0  0  0  0  0  0  0  0
    4.7479    3.5448    9.1795 H   0  0  0  0  0  0  0  0  0  0  0  0
    2.4249    4.3563    8.7629 H   0  0  0  0  0  0  0  0  0  0  0  0
    1.0902    2.3721   12.3629 H   0  0  0  0  0  0  0  0  0  0  0  0
    0.1933    5.0296   12.0831 H   0  0  0  0  0  0  0  0  0  0  0  0
   -1.4399    6.7667    9.8139 H   0  0  0  0  0  0  0  0  0  0  0  0
   -3.8210    7.5125    9.8385 H   0  0  0  0  0  0  0  0  0  0  0  0
   -4.7414    4.4791   12.7828 H   0  0  0  0  0  0  0  0  0  0  0  0
   -2.3630    3.7325   12.7583 H   0  0  0  0  0  0  0  0  0  0  0  0
   -5.8943    7.5780   11.3020 H   0  0  0  0  0  0  0  0  0  0  0  0
   -6.3467    6.0658   10.4277 H   0  0  0  0  0  0  0  0  0  0  0  0
   -6.7809    6.1728   14.4640 H   0  0  0  0  0  0  0  0  0  0  0  0
  1  2  1  0
  1 10  2  0
  2  3  2  0
  3  4  1  0
  3  9  1  0
  4  5  1  0
  4  6  2  0
  5 11  1  0
  6  7  1  0
  7  8  2  0
  7 21  1  0
  8  9  1  0
  9 10  1  0
 11 12  2  0
 11 16  1  0
 12 13  1  0
 13 14  2  0
 14 15  1  0
 14 17  1  0
 15 16  2  0
 15 19  1  0
 17 18  1  0
 19 20  1  0
 21 22  2  0
 21 26  1  0
 22 23  1  0
 23 24  2  0
 24 25  1  0
 25 26  2  0
 25 27  1  0
 27 29  1  0
 27 28  2  0
 29 30  1  0
 30 35  1  0
 30 31  2  0
 31 32  1  0
 32 33  2  0
 33 34  1  0
 33 36  1  0
 34 35  2  0
 36 37  1  0
 37 38  1  0
 37 39  2  0
  1 40  1  0
  5 41  1  0
  8 42  1  0
 10 43  1  0
 12 44  1  0
 13 45  1  0
 16 46  1  0
 18 47  1  0
 18 48  1  0
 18 49  1  0
 20 50  1  0
 20 51  1  0
 20 52  1  0
 22 53  1  0
 23 54  1  0
 24 55  1  0
 26 56  1  0
 29 57  1  0
 31 58  1  0
 32 59  1  0
 34 60  1  0
 35 61  1  0
 36 62  1  0
 36 63  1  0
 38 64  1  0
M  END
>  <s_m_entry_id>  (15) 
15

>  <MODEL>  (15) 
1

>  <REMARK>  (15) 
 VINA RESULT:   -10.038      0.000      0.000
 INTER + INTRA:         -15.817
 INTER:                 -14.732
 INTRA:                  -1.086
 UNBOUND:                -1.086
  Name = /scratch/kmzp800/tmpfqynkbqs/tmpbhfabthb.pdb
  10 active torsions:
  status: ('A' for Active; 'I' for Inactive)
    1  A    between atoms: N2_5  and  C4_6
    2  A    between atoms: C7_9  and  O1_10
    3  A    between atoms: O1_10  and  C8_11
    4  A    between atoms: C9_12  and  O2_13
    5  A    between atoms: O2_13  and  C10_14
    6  A    between atoms: C12_17  and  C13_18
    7  A    between atoms: C17_22  and  C18_23
    8  A    between atoms: N4_25  and  C19_26
    9  A    between atoms: C22_29  and  C23_30
   10  A    between atoms: C23_30  and  C24_31
                            x       y       z     vdW  Elec       q    Type
                         _______ _______ _______ _____ _____    ______ ____

>  <TORSDO>  (15) 
F 8

>  <grid_id>  (15) 
syk-prepared

>  <grid_path>  (15) 
syk_vina.pdbqt

>  <grid_filename>  (15) 
syk_vina.pdbqt

>  <docking_score>  (15) 
-10.038

>  <compound_name>  (15) 
CHEMBL3264998

>  <index_string>  (15) 
14:0:0

>  <s_m_Source_Path>  (15) 
/projects/mai/users/kmzp800_harry/pmx_colab/docking_jobs/syk/vina_prep/output

>  <s_m_Source_File>  (15) 
ptp1b_docked_conformers.sdf

>  <i_m_Source_File_Index>  (15) 
15

$$$$
CHEMBL3265027
     RDKit          3D

 39 43  0  0  1  0  0  0  0  0999 V2000
    6.2040    0.1640   15.8610 C   0  0  0  0  0  0  0  0  0  0  0  0
    5.8510    0.9260   14.7950 N   0  0  0  0  0  0  0  0  0  0  0  0
    4.5770    0.5700   14.5600 C   0  0  0  0  0  0  0  0  0  0  0  0
    3.7430    1.0630   13.5590 C   0  0  0  0  0  0  0  0  0  0  0  0
    4.2160    2.0600   12.6420 N   0  0  0  0  0  0  0  0  0  0  0  0
    2.4720    0.5640   13.4920 N   0  0  0  0  0  0  0  0  0  0  0  0
    2.0120   -0.3870   14.3640 C   0  0  0  0  0  0  0  0  0  0  0  0
    2.8770   -0.8690   15.3660 C   0  0  0  0  0  0  0  0  0  0  0  0
    4.1300   -0.3580   15.4110 N   0  0  0  0  0  0  0  0  0  0  0  0
    5.1350   -0.6390   16.2510 C   0  0  0  0  0  0  0  0  0  0  0  0
    0.6280   -0.8920   14.2440 C   0  0  0  0  0  0  0  0  0  0  0  0
   -0.2950   -0.2700   13.3620 C   0  0  0  0  0  0  0  0  0  0  0  0
   -1.6140   -0.7430   13.2400 C   0  0  0  0  0  0  0  0  0  0  0  0
   -1.9700   -1.8400   14.0170 C   0  0  0  0  0  0  0  0  0  0  0  0
   -3.1540   -2.5310   14.1300 C   0  0  0  0  0  0  0  0  0  0  0  0
   -2.9430   -3.5180   15.0380 N   0  0  0  0  0  0  0  0  0  0  0  0
   -1.6920   -3.4690   15.4880 N   0  0  0  0  0  0  0  0  0  0  0  0
   -1.0940   -2.4440   14.8660 C   0  0  0  0  0  0  0  0  0  0  0  0
    0.2170   -2.0040   15.0130 C   0  0  0  0  0  0  0  0  0  0  0  0
    3.4840    2.6630   11.5660 C   0  0  0  0  0  0  0  0  0  0  0  0
    2.1150    2.9580   11.6680 C   0  0  0  0  0  0  0  0  0  0  0  0
    1.4360    3.5460   10.5990 C   0  0  0  0  0  0  0  0  0  0  0  0
    2.1200    3.8430    9.4170 C   0  0  0  0  0  0  0  0  0  0  0  0
    3.4820    3.5520    9.3070 C   0  0  0  0  0  0  0  0  0  0  0  0
    4.1600    2.9640   10.3790 C   0  0  0  0  0  0  0  0  0  0  0  0
    7.1910    0.1785   16.3465 H   0  0  0  0  0  0  0  0  0  0  0  0
    5.1874    2.3774   12.7705 H   0  0  0  0  0  0  0  0  0  0  0  0
    2.5465   -1.6326   16.0855 H   0  0  0  0  0  0  0  0  0  0  0  0
    5.1191   -1.3595   17.0821 H   0  0  0  0  0  0  0  0  0  0  0  0
    0.0268    0.5957   12.7645 H   0  0  0  0  0  0  0  0  0  0  0  0
   -2.3335   -0.2654   12.5587 H   0  0  0  0  0  0  0  0  0  0  0  0
   -4.0896   -2.3241   13.5898 H   0  0  0  0  0  0  0  0  0  0  0  0
   -1.2647   -4.0988   16.1821 H   0  0  0  0  0  0  0  0  0  0  0  0
    0.9106   -2.5047   15.7045 H   0  0  0  0  0  0  0  0  0  0  0  0
    1.5737    2.7242   12.5966 H   0  0  0  0  0  0  0  0  0  0  0  0
    0.3638    3.7752   10.6871 H   0  0  0  0  0  0  0  0  0  0  0  0
    1.5863    4.3056    8.5737 H   0  0  0  0  0  0  0  0  0  0  0  0
    4.0209    3.7855    8.3769 H   0  0  0  0  0  0  0  0  0  0  0  0
    5.2324    2.7365   10.2884 H   0  0  0  0  0  0  0  0  0  0  0  0
  1 10  2  0
  1  2  1  0
  2  3  2  0
  3  9  1  0
  3  4  1  0
  4  5  1  0
  4  6  2  0
  5 20  1  0
  6  7  1  0
  7  8  2  0
  7 11  1  0
  8  9  1  0
  9 10  1  0
 11 19  1  0
 11 12  2  0
 12 13  1  0
 13 14  2  0
 14 15  1  0
 14 18  1  0
 15 16  2  0
 16 17  1  0
 17 18  1  0
 18 19  2  0
 20 21  2  0
 20 25  1  0
 21 22  1  0
 22 23  2  0
 23 24  1  0
 24 25  2  0
  1 26  1  0
  5 27  1  0
  8 28  1  0
 10 29  1  0
 12 30  1  0
 13 31  1  0
 15 32  1  0
 17 33  1  0
 19 34  1  0
 21 35  1  0
 22 36  1  0
 23 37  1  0
 24 38  1  0
 25 39  1  0
M  END
>  <s_m_entry_id>  (16) 
16

>  <MODEL>  (16) 
1

>  <REMARK>  (16) 
 VINA RESULT:    -9.655      0.000      0.000
 INTER + INTRA:         -11.036
 INTER:                 -10.784
 INTRA:                  -0.251
 UNBOUND:                -0.251
  Name = /scratch/kmzp800/tmpfl0swqg5/tmpdrc0gfun.pdb
  2 active torsions:
  status: ('A' for Active; 'I' for Inactive)
    1  A    between atoms: N2_5  and  C4_6
    2  A    between atoms: C10_13  and  C11_14
                            x       y       z     vdW  Elec       q    Type
                         _______ _______ _______ _____ _____    ______ ____

>  <TORSDO>  (16) 
F 2

>  <grid_id>  (16) 
syk-prepared

>  <grid_path>  (16) 
syk_vina.pdbqt

>  <grid_filename>  (16) 
syk_vina.pdbqt

>  <docking_score>  (16) 
-9.655

>  <compound_name>  (16) 
CHEMBL3265027

>  <index_string>  (16) 
15:0:0

>  <s_m_Source_Path>  (16) 
/projects/mai/users/kmzp800_harry/pmx_colab/docking_jobs/syk/vina_prep/output

>  <s_m_Source_File>  (16) 
ptp1b_docked_conformers.sdf

>  <i_m_Source_File_Index>  (16) 
16

$$$$
CHEMBL3265006
     RDKit          3D

 51 54  0  0  1  0  0  0  0  0999 V2000
    5.7010   -0.5570   16.4920 C   0  0  0  0  0  0  0  0  0  0  0  0
    4.4150   -0.9610   16.3330 N   0  0  0  0  0  0  0  0  0  0  0  0
    3.9950   -0.2630   15.2640 C   0  0  0  0  0  0  0  0  0  0  0  0
    2.7310   -0.3100   14.6810 C   0  0  0  0  0  0  0  0  0  0  0  0
    1.7140   -1.1690   15.2150 N   0  0  0  0  0  0  0  0  0  0  0  0
    2.5060    0.4830   13.5920 N   0  0  0  0  0  0  0  0  0  0  0  0
    3.4720    1.3070   13.0740 C   0  0  0  0  0  0  0  0  0  0  0  0
    4.7420    1.3350   13.6840 C   0  0  0  0  0  0  0  0  0  0  0  0
    4.9380    0.5380   14.7600 N   0  0  0  0  0  0  0  0  0  0  0  0
    6.0330    0.3780   15.5140 C   0  0  0  0  0  0  0  0  0  0  0  0
    0.3740   -1.3290   14.7310 C   0  0  0  0  0  0  0  0  0  0  0  0
   -0.3510   -2.5130   14.9250 C   0  0  0  0  0  0  0  0  0  0  0  0
   -1.6550   -2.6300   14.4390 C   0  0  0  0  0  0  0  0  0  0  0  0
   -2.2560   -1.5630   13.7500 C   0  0  0  0  0  0  0  0  0  0  0  0
   -1.5360   -0.3760   13.5530 C   0  0  0  0  0  0  0  0  0  0  0  0
   -0.2250   -0.2690   14.0450 C   0  0  0  0  0  0  0  0  0  0  0  0
   -3.5610   -1.6630   13.2560 O   0  0  0  0  0  0  0  0  0  0  0  0
   -4.1620   -2.9050   12.9160 C   0  0  0  0  0  0  0  0  0  0  0  0
   -2.1400    0.6830   12.8660 O   0  0  0  0  0  0  0  0  0  0  0  0
   -1.6120    1.2180   11.6600 C   0  0  0  0  0  0  0  0  0  0  0  0
    3.1740    2.1450   11.8940 C   0  0  0  0  0  0  0  0  0  0  0  0
    4.1710    2.3980   10.9420 C   0  0  0  0  0  0  0  0  0  0  0  0
    3.8980    3.1890    9.8230 C   0  0  0  0  0  0  0  0  0  0  0  0
    2.6250    3.7350    9.6480 C   0  0  0  0  0  0  0  0  0  0  0  0
    1.6150    3.4940   10.5880 C   0  0  0  0  0  0  0  0  0  0  0  0
    1.8970    2.6990   11.7080 C   0  0  0  0  0  0  0  0  0  0  0  0
    0.2710    4.0690   10.4030 C   0  0  0  0  0  0  0  0  0  0  0  0
   -0.4190    3.7500    9.3960 O   0  0  0  0  0  0  0  0  0  0  0  0
   -0.2540    4.9890   11.3650 N   0  0  0  0  0  0  0  0  0  0  0  0
   -1.5730    5.5820   11.2250 C   0  0  0  0  0  0  0  0  0  0  0  0
    6.3817   -0.9155   17.2782 H   0  0  0  0  0  0  0  0  0  0  0  0
    1.9751   -1.7329   16.0365 H   0  0  0  0  0  0  0  0  0  0  0  0
    5.5449    1.9812   13.2995 H   0  0  0  0  0  0  0  0  0  0  0  0
    7.0014    0.8839   15.3866 H   0  0  0  0  0  0  0  0  0  0  0  0
    0.1098   -3.3546   15.4630 H   0  0  0  0  0  0  0  0  0  0  0  0
   -2.2152   -3.5634   14.5966 H   0  0  0  0  0  0  0  0  0  0  0  0
    0.3385    0.6626   13.8881 H   0  0  0  0  0  0  0  0  0  0  0  0
   -4.4252   -3.4488   13.8352 H   0  0  0  0  0  0  0  0  0  0  0  0
   -5.0715   -2.7226   12.3248 H   0  0  0  0  0  0  0  0  0  0  0  0
   -3.4546   -3.5050   12.3248 H   0  0  0  0  0  0  0  0  0  0  0  0
   -0.8575    1.9825   11.8974 H   0  0  0  0  0  0  0  0  0  0  0  0
   -1.1456    0.4119   11.0745 H   0  0  0  0  0  0  0  0  0  0  0  0
   -2.4241    1.6737   11.0745 H   0  0  0  0  0  0  0  0  0  0  0  0
    5.1757    1.9708   11.0767 H   0  0  0  0  0  0  0  0  0  0  0  0
    4.6860    3.3815    9.0800 H   0  0  0  0  0  0  0  0  0  0  0  0
    2.4140    4.3583    8.7665 H   0  0  0  0  0  0  0  0  0  0  0  0
    1.1082    2.5068   12.4502 H   0  0  0  0  0  0  0  0  0  0  0  0
    0.3211    5.2386   12.1822 H   0  0  0  0  0  0  0  0  0  0  0  0
   -1.9970    5.7726   12.2219 H   0  0  0  0  0  0  0  0  0  0  0  0
   -1.4920    6.5303   10.6735 H   0  0  0  0  0  0  0  0  0  0  0  0
   -2.2286    4.8920   10.6735 H   0  0  0  0  0  0  0  0  0  0  0  0
  1  2  1  0
  1 10  2  0
  2  3  2  0
  3  4  1  0
  3  9  1  0
  4  5  1  0
  4  6  2  0
  5 11  1  0
  6  7  1  0
  7  8  2  0
  7 21  1  0
  8  9  1  0
  9 10  1  0
 11 12  2  0
 11 16  1  0
 12 13  1  0
 13 14  2  0
 14 15  1  0
 14 17  1  0
 15 16  2  0
 15 19  1  0
 17 18  1  0
 19 20  1  0
 21 22  2  0
 21 26  1  0
 22 23  1  0
 23 24  2  0
 24 25  1  0
 25 26  2  0
 25 27  1  0
 27 29  1  0
 27 28  2  0
 29 30  1  0
  1 31  1  0
  5 32  1  0
  8 33  1  0
 10 34  1  0
 12 35  1  0
 13 36  1  0
 16 37  1  0
 18 38  1  0
 18 39  1  0
 18 40  1  0
 20 41  1  0
 20 42  1  0
 20 43  1  0
 22 44  1  0
 23 45  1  0
 24 46  1  0
 26 47  1  0
 29 48  1  0
 30 49  1  0
 30 50  1  0
 30 51  1  0
M  END
>  <s_m_entry_id>  (17) 
17

>  <MODEL>  (17) 
1

>  <REMARK>  (17) 
 VINA RESULT:    -9.802      0.000      0.000
 INTER + INTRA:         -13.260
 INTER:                 -12.667
 INTRA:                  -0.593
 UNBOUND:                -0.593
  Name = /scratch/kmzp800/tmp8ofp5mq1/tmpuk5ijbpd.pdb
  8 active torsions:
  status: ('A' for Active; 'I' for Inactive)
    1  A    between atoms: N2_5  and  C4_6
    2  A    between atoms: C7_9  and  O1_10
    3  A    between atoms: O1_10  and  C8_11
    4  A    between atoms: C9_12  and  O2_13
    5  A    between atoms: O2_13  and  C10_14
    6  A    between atoms: C12_17  and  C13_18
    7  A    between atoms: C17_22  and  C18_23
    8  A    between atoms: N4_25  and  C19_26
                            x       y       z     vdW  Elec       q    Type
                         _______ _______ _______ _____ _____    ______ ____

>  <TORSDO>  (17) 
F 5

>  <grid_id>  (17) 
syk-prepared

>  <grid_path>  (17) 
syk_vina.pdbqt

>  <grid_filename>  (17) 
syk_vina.pdbqt

>  <docking_score>  (17) 
-9.802

>  <compound_name>  (17) 
CHEMBL3265006

>  <index_string>  (17) 
16:0:0

>  <s_m_Source_Path>  (17) 
/projects/mai/users/kmzp800_harry/pmx_colab/docking_jobs/syk/vina_prep/output

>  <s_m_Source_File>  (17) 
ptp1b_docked_conformers.sdf

>  <i_m_Source_File_Index>  (17) 
17

$$$$
CHEMBL3265003
     RDKit          3D

 65 70  0  0  1  0  0  0  0  0999 V2000
    1.8380    0.9720   13.3190 C   0  0  0  0  0  0  0  0  0  0  0  0
    3.1840    0.5900   13.4170 C   0  0  0  0  0  0  0  0  0  0  0  0
    4.1610    1.2570   12.6730 C   0  0  0  0  0  0  0  0  0  0  0  0
    3.8000    2.3080   11.8260 C   0  0  0  0  0  0  0  0  0  0  0  0
    2.4570    2.7010   11.7140 C   0  0  0  0  0  0  0  0  0  0  0  0
    1.4850    2.0250   12.4650 C   0  0  0  0  0  0  0  0  0  0  0  0
    2.0580    3.8080   10.8220 C   0  0  0  0  0  0  0  0  0  0  0  0
    0.7290    4.0800   10.6240 N   0  0  0  0  0  0  0  0  0  0  0  0
    0.3050    5.0910    9.8120 C   0  0  0  0  0  0  0  0  0  0  0  0
   -1.0890    5.3670    9.6140 N   0  0  0  0  0  0  0  0  0  0  0  0
    1.2770    5.8660    9.1840 C   0  0  0  0  0  0  0  0  0  0  0  0
    1.0690    6.9040    8.3560 N   0  0  0  0  0  0  0  0  0  0  0  0
    2.3220    7.3000    8.0200 C   0  0  0  0  0  0  0  0  0  0  0  0
    3.2660    6.4920    8.6510 C   0  0  0  0  0  0  0  0  0  0  0  0
    2.5720    5.6030    9.3750 N   0  0  0  0  0  0  0  0  0  0  0  0
    3.0210    4.6010   10.1680 C   0  0  0  0  0  0  0  0  0  0  0  0
   -2.1970    4.5840   10.0800 C   0  0  0  0  0  0  0  0  0  0  0  0
   -2.4670    3.3040    9.5790 C   0  0  0  0  0  0  0  0  0  0  0  0
   -3.5700    2.5830   10.0410 C   0  0  0  0  0  0  0  0  0  0  0  0
   -4.4240    3.1350   11.0090 C   0  0  0  0  0  0  0  0  0  0  0  0
   -4.1590    4.4160   11.5170 C   0  0  0  0  0  0  0  0  0  0  0  0
   -3.0470    5.1320   11.0450 C   0  0  0  0  0  0  0  0  0  0  0  0
   -5.5400    2.4320   11.4780 O   0  0  0  0  0  0  0  0  0  0  0  0
   -6.7080    2.2290   10.6940 C   0  0  0  0  0  0  0  0  0  0  0  0
   -5.0130    4.9570   12.4840 O   0  0  0  0  0  0  0  0  0  0  0  0
   -4.5760    5.8980   13.4560 C   0  0  0  0  0  0  0  0  0  0  0  0
    0.0620   -0.7960   13.5180 N   0  0  0  0  0  0  0  0  0  0  0  0
    0.8030    0.2820   14.1080 C   0  0  0  0  0  0  0  0  0  0  0  0
    0.5690    0.6510   15.2930 O   0  0  0  0  0  0  0  0  0  0  0  0
   -2.9330   -3.1420   15.4040 C   0  0  0  0  0  0  0  0  0  0  0  0
   -3.2960   -2.2070   14.4250 C   0  0  0  0  0  0  0  0  0  0  0  0
   -2.3200   -1.4290   13.7960 C   0  0  0  0  0  0  0  0  0  0  0  0
   -0.9680   -1.5770   14.1380 C   0  0  0  0  0  0  0  0  0  0  0  0
   -0.6070   -2.5080   15.1150 C   0  0  0  0  0  0  0  0  0  0  0  0
   -1.5830   -3.2870   15.7450 C   0  0  0  0  0  0  0  0  0  0  0  0
   -5.5450   -5.3830   16.5010 C   0  0  0  0  0  0  0  0  0  0  0  0
   -5.1940   -4.7630   17.6440 N   0  0  0  0  0  0  0  0  0  0  0  0
   -4.2300   -3.8980   17.3860 N   0  0  0  0  0  0  0  0  0  0  0  0
   -3.9580   -3.9630   16.0720 C   0  0  0  0  0  0  0  0  0  0  0  0
   -4.7720   -4.8980   15.4600 C   0  0  0  0  0  0  0  0  0  0  0  0
    3.4717   -0.2377   14.0820 H   0  0  0  0  0  0  0  0  0  0  0  0
    5.2154    0.9543   12.7543 H   0  0  0  0  0  0  0  0  0  0  0  0
    4.5729    2.8307   11.2434 H   0  0  0  0  0  0  0  0  0  0  0  0
    0.4301    2.3257   12.3825 H   0  0  0  0  0  0  0  0  0  0  0  0
   -1.3186    6.2177    9.0806 H   0  0  0  0  0  0  0  0  0  0  0  0
    2.5587    8.1374    7.3471 H   0  0  0  0  0  0  0  0  0  0  0  0
    4.3604    6.5685    8.5709 H   0  0  0  0  0  0  0  0  0  0  0  0
    4.0973    4.4136   10.2965 H   0  0  0  0  0  0  0  0  0  0  0  0
   -1.8063    2.8643    8.8173 H   0  0  0  0  0  0  0  0  0  0  0  0
   -3.7709    1.5769    9.6443 H   0  0  0  0  0  0  0  0  0  0  0  0
   -2.8420    6.1379   11.4401 H   0  0  0  0  0  0  0  0  0  0  0  0
   -7.5729    2.0787   11.3568 H   0  0  0  0  0  0  0  0  0  0  0  0
   -6.8813    3.1105   10.0592 H   0  0  0  0  0  0  0  0  0  0  0  0
   -6.5737    1.3407   10.0592 H   0  0  0  0  0  0  0  0  0  0  0  0
   -4.7619    5.4976   14.4635 H   0  0  0  0  0  0  0  0  0  0  0  0
   -3.4994    6.0839   13.3283 H   0  0  0  0  0  0  0  0  0  0  0  0
   -5.1286    6.8405   13.3283 H   0  0  0  0  0  0  0  0  0  0  0  0
    0.2954   -1.0345   12.5436 H   0  0  0  0  0  0  0  0  0  0  0  0
   -4.3541   -2.0849   14.1504 H   0  0  0  0  0  0  0  0  0  0  0  0
   -2.6137   -0.6972   13.0291 H   0  0  0  0  0  0  0  0  0  0  0  0
    0.4510   -2.6291   15.3904 H   0  0  0  0  0  0  0  0  0  0  0  0
   -1.2882   -4.0176   16.5126 H   0  0  0  0  0  0  0  0  0  0  0  0
   -6.3240   -6.1541   16.4091 H   0  0  0  0  0  0  0  0  0  0  0  0
   -3.7684   -3.2825   18.0709 H   0  0  0  0  0  0  0  0  0  0  0  0
   -4.7990   -5.1875   14.3991 H   0  0  0  0  0  0  0  0  0  0  0  0
  1  2  2  0
  1 28  1  0
  1  6  1  0
  2  3  1  0
  3  4  2  0
  4  5  1  0
  5  6  2  0
  5  7  1  0
  7  8  1  0
  7 16  2  0
  8  9  2  0
  9 10  1  0
  9 11  1  0
 10 17  1  0
 11 15  1  0
 11 12  2  0
 12 13  1  0
 13 14  2  0
 14 15  1  0
 15 16  1  0
 17 22  1  0
 17 18  2  0
 18 19  1  0
 19 20  2  0
 20 23  1  0
 20 21  1  0
 21 25  1  0
 21 22  2  0
 23 24  1  0
 25 26  1  0
 27 28  1  0
 27 33  1  0
 28 29  2  0
 30 35  1  0
 30 39  1  0
 30 31  2  0
 31 32  1  0
 32 33  2  0
 33 34  1  0
 34 35  2  0
 36 37  2  0
 36 40  1  0
 37 38  1  0
 38 39  1  0
 39 40  2  0
  2 41  1  0
  3 42  1  0
  4 43  1  0
  6 44  1  0
 10 45  1  0
 13 46  1  0
 14 47  1  0
 16 48  1  0
 18 49  1  0
 19 50  1  0
 22 51  1  0
 24 52  1  0
 24 53  1  0
 24 54  1  0
 26 55  1  0
 26 56  1  0
 26 57  1  0
 27 58  1  0
 31 59  1  0
 32 60  1  0
 34 61  1  0
 35 62  1  0
 36 63  1  0
 38 64  1  0
 40 65  1  0
M  END
>  <s_m_entry_id>  (18) 
18

>  <MODEL>  (18) 
1

>  <REMARK>  (18) 
 VINA RESULT:    -8.795      0.000      0.000
 INTER + INTRA:         -13.799
 INTER:                 -12.394
 INTRA:                  -1.404
 UNBOUND:                -1.404
  Name = /scratch/kmzp800/tmp9ux1o8mb/tmp67mctsjl.pdb
  9 active torsions:
  status: ('A' for Active; 'I' for Inactive)
    1  A    between atoms: C2_4  and  C3_5
    2  A    between atoms: C6_8  and  N3_9
    3  A    between atoms: C7_10  and  C8_12
    4  A    between atoms: C12_16  and  C13_17
    5  A    between atoms: N5_20  and  C15_21
    6  A    between atoms: C18_24  and  O2_25
    7  A    between atoms: O2_25  and  C19_26
    8  A    between atoms: C20_27  and  O3_28
    9  A    between atoms: O3_28  and  C21_29
                            x       y       z     vdW  Elec       q    Type
                         _______ _______ _______ _____ _____    ______ ____

>  <TORSDO>  (18) 
F 7

>  <grid_id>  (18) 
syk-prepared

>  <grid_path>  (18) 
syk_vina.pdbqt

>  <grid_filename>  (18) 
syk_vina.pdbqt

>  <docking_score>  (18) 
-8.795

>  <compound_name>  (18) 
CHEMBL3265003

>  <index_string>  (18) 
17:0:0

>  <s_m_Source_Path>  (18) 
/projects/mai/users/kmzp800_harry/pmx_colab/docking_jobs/syk/vina_prep/output

>  <s_m_Source_File>  (18) 
ptp1b_docked_conformers.sdf

>  <i_m_Source_File_Index>  (18) 
18

$$$$
CHEMBL3265018
     RDKit          3D

 47 51  0  0  1  0  0  0  0  0999 V2000
    5.7140   -0.5870   16.3890 C   0  0  0  0  0  0  0  0  0  0  0  0
    4.4350   -1.0220   16.2630 N   0  0  0  0  0  0  0  0  0  0  0  0
    3.9540   -0.2980   15.2380 C   0  0  0  0  0  0  0  0  0  0  0  0
    2.6710   -0.3610   14.7010 C   0  0  0  0  0  0  0  0  0  0  0  0
    1.6990   -1.2680   15.2410 N   0  0  0  0  0  0  0  0  0  0  0  0
    2.3820    0.4650   13.6520 N   0  0  0  0  0  0  0  0  0  0  0  0
    3.3040    1.3340   13.1300 C   0  0  0  0  0  0  0  0  0  0  0  0
    4.5950    1.3770   13.6930 C   0  0  0  0  0  0  0  0  0  0  0  0
    4.8540    0.5480   14.7300 N   0  0  0  0  0  0  0  0  0  0  0  0
    5.9820    0.3920   15.4360 C   0  0  0  0  0  0  0  0  0  0  0  0
    2.9380    2.2050   11.9950 C   0  0  0  0  0  0  0  0  0  0  0  0
    3.9160    2.5540   11.0290 C   0  0  0  0  0  0  0  0  0  0  0  0
    3.5960    3.3820    9.9380 C   0  0  0  0  0  0  0  0  0  0  0  0
    2.2850    3.8400    9.8480 C   0  0  0  0  0  0  0  0  0  0  0  0
    1.7560    4.6310    8.9050 N   0  0  0  0  0  0  0  0  0  0  0  0
    0.4620    4.7590    9.3020 C   0  0  0  0  0  0  0  0  0  0  0  0
    0.1700    4.0820   10.4450 N   0  0  0  0  0  0  0  0  0  0  0  0
    1.3400    3.5130   10.7660 C   0  0  0  0  0  0  0  0  0  0  0  0
    1.6190    2.6970   11.8580 C   0  0  0  0  0  0  0  0  0  0  0  0
    0.3450   -1.4490   14.8010 C   0  0  0  0  0  0  0  0  0  0  0  0
   -0.3820   -2.6100   15.0890 C   0  0  0  0  0  0  0  0  0  0  0  0
   -1.6970   -2.7490   14.6410 C   0  0  0  0  0  0  0  0  0  0  0  0
   -2.3070   -1.7260   13.8970 C   0  0  0  0  0  0  0  0  0  0  0  0
   -1.5840   -0.5590   13.6050 C   0  0  0  0  0  0  0  0  0  0  0  0
   -0.2610   -0.4310   14.0590 C   0  0  0  0  0  0  0  0  0  0  0  0
   -3.6230   -1.8470   13.4410 O   0  0  0  0  0  0  0  0  0  0  0  0
   -4.1320   -3.0430   12.8650 C   0  0  0  0  0  0  0  0  0  0  0  0
   -2.1970    0.4560   12.8630 O   0  0  0  0  0  0  0  0  0  0  0  0
   -1.5920    1.0440   11.7180 C   0  0  0  0  0  0  0  0  0  0  0  0
    6.4340   -0.9542   17.1351 H   0  0  0  0  0  0  0  0  0  0  0  0
    2.0067   -1.8532   16.0308 H   0  0  0  0  0  0  0  0  0  0  0  0
    5.3643    2.0599   13.3034 H   0  0  0  0  0  0  0  0  0  0  0  0
    6.9305    0.9300   15.2915 H   0  0  0  0  0  0  0  0  0  0  0  0
    4.9417    2.1708   11.1348 H   0  0  0  0  0  0  0  0  0  0  0  0
    4.3511    3.6563    9.1866 H   0  0  0  0  0  0  0  0  0  0  0  0
   -0.2799    5.3548    8.7501 H   0  0  0  0  0  0  0  0  0  0  0  0
   -0.7301    4.0215   10.9421 H   0  0  0  0  0  0  0  0  0  0  0  0
    0.8391    2.4428   12.5909 H   0  0  0  0  0  0  0  0  0  0  0  0
    0.0854   -3.4175   15.6716 H   0  0  0  0  0  0  0  0  0  0  0  0
   -2.2590   -3.6659   14.8723 H   0  0  0  0  0  0  0  0  0  0  0  0
    0.3060    0.4828   13.8275 H   0  0  0  0  0  0  0  0  0  0  0  0
   -4.4278   -3.7381   13.6646 H   0  0  0  0  0  0  0  0  0  0  0  0
   -5.0074   -2.8064   12.2424 H   0  0  0  0  0  0  0  0  0  0  0  0
   -3.3546   -3.5099   12.2424 H   0  0  0  0  0  0  0  0  0  0  0  0
   -0.8373    1.7775   12.0380 H   0  0  0  0  0  0  0  0  0  0  0  0
   -1.1094    0.2606   11.1152 H   0  0  0  0  0  0  0  0  0  0  0  0
   -2.3614    1.5487   11.1152 H   0  0  0  0  0  0  0  0  0  0  0  0
  1  2  1  0
  1 10  2  0
  2  3  2  0
  3  4  1  0
  3  9  1  0
  4  5  1  0
  4  6  2  0
  5 20  1  0
  6  7  1  0
  7  8  2  0
  7 11  1  0
  8  9  1  0
  9 10  1  0
 11 12  2  0
 11 19  1  0
 12 13  1  0
 13 14  2  0
 14 18  1  0
 14 15  1  0
 15 16  2  0
 16 17  1  0
 17 18  1  0
 18 19  2  0
 20 21  2  0
 20 25  1  0
 21 22  1  0
 22 23  2  0
 23 24  1  0
 23 26  1  0
 24 25  2  0
 24 28  1  0
 26 27  1  0
 28 29  1  0
  1 30  1  0
  5 31  1  0
  8 32  1  0
 10 33  1  0
 12 34  1  0
 13 35  1  0
 16 36  1  0
 17 37  1  0
 19 38  1  0
 21 39  1  0
 22 40  1  0
 25 41  1  0
 27 42  1  0
 27 43  1  0
 27 44  1  0
 29 45  1  0
 29 46  1  0
 29 47  1  0
M  END
>  <s_m_entry_id>  (19) 
19

>  <MODEL>  (19) 
1

>  <REMARK>  (19) 
 VINA RESULT:    -9.417      0.000      0.000
 INTER + INTRA:         -11.964
 INTER:                 -11.619
 INTRA:                  -0.346
 UNBOUND:                -0.346
  Name = /scratch/kmzp800/tmpfka_p5_u/tmp8rypoij9.pdb
  6 active torsions:
  status: ('A' for Active; 'I' for Inactive)
    1  A    between atoms: N2_5  and  C4_6
    2  A    between atoms: C7_9  and  O1_10
    3  A    between atoms: O1_10  and  C8_11
    4  A    between atoms: C9_12  and  O2_13
    5  A    between atoms: O2_13  and  C10_14
    6  A    between atoms: C12_17  and  C13_18
                            x       y       z     vdW  Elec       q    Type
                         _______ _______ _______ _____ _____    ______ ____

>  <TORSDO>  (19) 
F 4

>  <grid_id>  (19) 
syk-prepared

>  <grid_path>  (19) 
syk_vina.pdbqt

>  <grid_filename>  (19) 
syk_vina.pdbqt

>  <docking_score>  (19) 
-9.417

>  <compound_name>  (19) 
CHEMBL3265018

>  <index_string>  (19) 
18:0:0

>  <s_m_Source_Path>  (19) 
/projects/mai/users/kmzp800_harry/pmx_colab/docking_jobs/syk/vina_prep/output

>  <s_m_Source_File>  (19) 
ptp1b_docked_conformers.sdf

>  <i_m_Source_File_Index>  (19) 
19

$$$$
CHEMBL3265025
     RDKit          3D

 50 54  0  0  1  0  0  0  0  0999 V2000
    5.5900   -0.5740   16.2440 C   0  0  0  0  0  0  0  0  0  0  0  0
    4.3310   -1.0650   16.1140 N   0  0  0  0  0  0  0  0  0  0  0  0
    3.8000   -0.3170   15.1320 C   0  0  0  0  0  0  0  0  0  0  0  0
    2.5120   -0.4140   14.6110 C   0  0  0  0  0  0  0  0  0  0  0  0
    1.6000   -1.4020   15.1110 N   0  0  0  0  0  0  0  0  0  0  0  0
    2.1680    0.4430   13.6040 N   0  0  0  0  0  0  0  0  0  0  0  0
    3.0410    1.3790   13.1130 C   0  0  0  0  0  0  0  0  0  0  0  0
    4.3360    1.4600   13.6610 C   0  0  0  0  0  0  0  0  0  0  0  0
    4.6510    0.5970   14.6550 N   0  0  0  0  0  0  0  0  0  0  0  0
    5.7960    0.4620   15.3360 C   0  0  0  0  0  0  0  0  0  0  0  0
    2.6210    2.2820   12.0200 C   0  0  0  0  0  0  0  0  0  0  0  0
    3.5490    2.6890   11.0490 C   0  0  0  0  0  0  0  0  0  0  0  0
    3.1670    3.5470   10.0140 C   0  0  0  0  0  0  0  0  0  0  0  0
    1.8470    4.0000    9.9380 C   0  0  0  0  0  0  0  0  0  0  0  0
    0.9090    3.5960   10.8990 C   0  0  0  0  0  0  0  0  0  0  0  0
    1.2980    2.7470   11.9380 C   0  0  0  0  0  0  0  0  0  0  0  0
   -0.4080    4.0650   10.8290 O   0  0  0  0  0  0  0  0  0  0  0  0
   -0.9590    4.6580    9.6480 C   0  0  0  0  0  0  0  0  0  0  0  0
    0.0920    5.3280    8.8140 C   0  0  0  0  0  0  0  0  0  0  0  0
   -0.2360    6.2110    7.9800 O   0  0  0  0  0  0  0  0  0  0  0  0
    1.4550    4.9130    8.9150 N   0  0  0  0  0  0  0  0  0  0  0  0
    0.2210   -1.5650   14.7560 C   0  0  0  0  0  0  0  0  0  0  0  0
   -0.4290   -2.7470   15.1210 C   0  0  0  0  0  0  0  0  0  0  0  0
   -1.7760   -2.9400   14.8050 C   0  0  0  0  0  0  0  0  0  0  0  0
   -2.4950   -1.9470   14.1210 C   0  0  0  0  0  0  0  0  0  0  0  0
   -1.8520   -0.7550   13.7550 C   0  0  0  0  0  0  0  0  0  0  0  0
   -0.4970   -0.5720   14.0760 C   0  0  0  0  0  0  0  0  0  0  0  0
   -3.8440   -2.1240   13.7960 O   0  0  0  0  0  0  0  0  0  0  0  0
   -4.2940   -3.1220   12.8900 C   0  0  0  0  0  0  0  0  0  0  0  0
   -2.5780    0.2320   13.0790 O   0  0  0  0  0  0  0  0  0  0  0  0
   -1.9740    1.1550   12.1830 C   0  0  0  0  0  0  0  0  0  0  0  0
    6.3384   -0.9409   16.9618 H   0  0  0  0  0  0  0  0  0  0  0  0
    1.9776   -2.0672   15.8008 H   0  0  0  0  0  0  0  0  0  0  0  0
    5.0649    2.1978   13.2945 H   0  0  0  0  0  0  0  0  0  0  0  0
    6.7154    1.0514   15.2046 H   0  0  0  0  0  0  0  0  0  0  0  0
    4.5871    2.3292   11.1031 H   0  0  0  0  0  0  0  0  0  0  0  0
    3.9033    3.8649    9.2612 H   0  0  0  0  0  0  0  0  0  0  0  0
    0.5633    2.4405   12.6971 H   0  0  0  0  0  0  0  0  0  0  0  0
   -1.4414    3.8724    9.0479 H   0  0  0  0  0  0  0  0  0  0  0  0
   -1.6855    5.4232    9.9588 H   0  0  0  0  0  0  0  0  0  0  0  0
    2.1541    5.2728    8.2496 H   0  0  0  0  0  0  0  0  0  0  0  0
    0.1235   -3.5304   15.6605 H   0  0  0  0  0  0  0  0  0  0  0  0
   -2.2765   -3.8760   15.0940 H   0  0  0  0  0  0  0  0  0  0  0  0
    0.0072    0.3629   13.7900 H   0  0  0  0  0  0  0  0  0  0  0  0
   -4.6819   -3.9823   13.4552 H   0  0  0  0  0  0  0  0  0  0  0  0
   -5.0930   -2.7089   12.2567 H   0  0  0  0  0  0  0  0  0  0  0  0
   -3.4555   -3.4473   12.2567 H   0  0  0  0  0  0  0  0  0  0  0  0
   -1.4601    1.9403   12.7568 H   0  0  0  0  0  0  0  0  0  0  0  0
   -1.2456    0.6278   11.5493 H   0  0  0  0  0  0  0  0  0  0  0  0
   -2.7487    1.6114   11.5493 H   0  0  0  0  0  0  0  0  0  0  0  0
  1  2  1  0
  1 10  2  0
  2  3  2  0
  3  4  1  0
  3  9  1  0
  4  5  1  0
  4  6  2  0
  5 22  1  0
  6  7  1  0
  7  8  2  0
  7 11  1  0
  8  9  1  0
  9 10  1  0
 11 12  2  0
 11 16  1  0
 12 13  1  0
 13 14  2  0
 14 15  1  0
 14 21  1  0
 15 16  2  0
 15 17  1  0
 17 18  1  0
 18 19  1  0
 19 21  1  0
 19 20  2  0
 22 23  2  0
 22 27  1  0
 23 24  1  0
 24 25  2  0
 25 26  1  0
 25 28  1  0
 26 27  2  0
 26 30  1  0
 28 29  1  0
 30 31  1  0
  1 32  1  0
  5 33  1  0
  8 34  1  0
 10 35  1  0
 12 36  1  0
 13 37  1  0
 16 38  1  0
 18 39  1  0
 18 40  1  0
 21 41  1  0
 23 42  1  0
 24 43  1  0
 27 44  1  0
 29 45  1  0
 29 46  1  0
 29 47  1  0
 31 48  1  0
 31 49  1  0
 31 50  1  0
M  END
>  <s_m_entry_id>  (20) 
20

>  <MODEL>  (20) 
1

>  <REMARK>  (20) 
 VINA RESULT:    -9.692      0.000      0.000
 INTER + INTRA:         -12.414
 INTER:                 -11.958
 INTRA:                  -0.456
 UNBOUND:                -0.456
  Name = /scratch/kmzp800/tmpyleo17q8/tmpujwvlhjz.pdb
  6 active torsions:
  status: ('A' for Active; 'I' for Inactive)
    1  A    between atoms: N2_5  and  C4_6
    2  A    between atoms: C7_9  and  O1_10
    3  A    between atoms: O1_10  and  C8_11
    4  A    between atoms: C9_12  and  O2_13
    5  A    between atoms: O2_13  and  C10_14
    6  A    between atoms: C12_17  and  C13_18
                            x       y       z     vdW  Elec       q    Type
                         _______ _______ _______ _____ _____    ______ ____

>  <TORSDO>  (20) 
F 4

>  <grid_id>  (20) 
syk-prepared

>  <grid_path>  (20) 
syk_vina.pdbqt

>  <grid_filename>  (20) 
syk_vina.pdbqt

>  <docking_score>  (20) 
-9.692

>  <compound_name>  (20) 
CHEMBL3265025

>  <index_string>  (20) 
19:0:0

>  <s_m_Source_Path>  (20) 
/projects/mai/users/kmzp800_harry/pmx_colab/docking_jobs/syk/vina_prep/output

>  <s_m_Source_File>  (20) 
ptp1b_docked_conformers.sdf

>  <i_m_Source_File_Index>  (20) 
20

$$$$
CHEMBL3265008
     RDKit          3D

 48 51  0  0  1  0  0  0  0  0999 V2000
    5.5090   -0.6240   16.4120 C   0  0  0  0  0  0  0  0  0  0  0  0
    4.2200   -1.0160   16.2450 N   0  0  0  0  0  0  0  0  0  0  0  0
    3.7960   -0.2750   15.2070 C   0  0  0  0  0  0  0  0  0  0  0  0
    2.5290   -0.2960   14.6300 C   0  0  0  0  0  0  0  0  0  0  0  0
    1.5160   -1.1740   15.1400 N   0  0  0  0  0  0  0  0  0  0  0  0
    2.2990    0.5430   13.5760 N   0  0  0  0  0  0  0  0  0  0  0  0
    3.2650    1.3830   13.0860 C   0  0  0  0  0  0  0  0  0  0  0  0
    4.5380    1.3830   13.6890 C   0  0  0  0  0  0  0  0  0  0  0  0
    4.7380    0.5430   14.7320 N   0  0  0  0  0  0  0  0  0  0  0  0
    5.8380    0.3500   15.4710 C   0  0  0  0  0  0  0  0  0  0  0  0
    2.9690    2.2720   11.9430 C   0  0  0  0  0  0  0  0  0  0  0  0
    3.9770    2.6000   11.0280 C   0  0  0  0  0  0  0  0  0  0  0  0
    3.7060    3.4380    9.9460 C   0  0  0  0  0  0  0  0  0  0  0  0
    2.4220    3.9610    9.7630 C   0  0  0  0  0  0  0  0  0  0  0  0
    2.1980    4.7730    8.7000 F   0  0  0  0  0  0  0  0  0  0  0  0
    1.3930    3.6440   10.6730 C   0  0  0  0  0  0  0  0  0  0  0  0
    1.6830    2.8000   11.7560 C   0  0  0  0  0  0  0  0  0  0  0  0
    0.0200    4.1730   10.5220 C   0  0  0  0  0  0  0  0  0  0  0  0
   -0.4580    4.9790   11.3640 O   0  0  0  0  0  0  0  0  0  0  0  0
   -0.7850    3.7730    9.4160 N   0  0  0  0  0  0  0  0  0  0  0  0
    0.1690   -1.3210   14.6690 C   0  0  0  0  0  0  0  0  0  0  0  0
   -0.4860   -2.5340   14.8930 C   0  0  0  0  0  0  0  0  0  0  0  0
   -1.7970   -2.7230   14.4530 C   0  0  0  0  0  0  0  0  0  0  0  0
   -2.4740   -1.6950   13.7770 C   0  0  0  0  0  0  0  0  0  0  0  0
   -1.8250   -0.4730   13.5470 C   0  0  0  0  0  0  0  0  0  0  0  0
   -0.5040   -0.2930   13.9950 C   0  0  0  0  0  0  0  0  0  0  0  0
   -3.7880   -1.8670   13.3280 O   0  0  0  0  0  0  0  0  0  0  0  0
   -4.2970   -3.1220   12.8980 C   0  0  0  0  0  0  0  0  0  0  0  0
   -2.5090    0.5440   12.8720 O   0  0  0  0  0  0  0  0  0  0  0  0
   -1.9130    1.3230   11.8450 C   0  0  0  0  0  0  0  0  0  0  0  0
    6.1935   -1.0175   17.1779 H   0  0  0  0  0  0  0  0  0  0  0  0
    1.7871   -1.7678   15.9368 H   0  0  0  0  0  0  0  0  0  0  0  0
    5.3406    2.0416   13.3257 H   0  0  0  0  0  0  0  0  0  0  0  0
    6.8069    0.8583   15.3580 H   0  0  0  0  0  0  0  0  0  0  0  0
    4.9903    2.1938   11.1634 H   0  0  0  0  0  0  0  0  0  0  0  0
    4.5059    3.6885    9.2336 H   0  0  0  0  0  0  0  0  0  0  0  0
    0.8868    2.5477   12.4718 H   0  0  0  0  0  0  0  0  0  0  0  0
   -1.7407    4.1434    9.3140 H   0  0  0  0  0  0  0  0  0  0  0  0
   -0.4111    3.1135    8.7187 H   0  0  0  0  0  0  0  0  0  0  0  0
    0.0353   -3.3466   15.4202 H   0  0  0  0  0  0  0  0  0  0  0  0
   -2.3027   -3.6824   14.6367 H   0  0  0  0  0  0  0  0  0  0  0  0
    0.0062    0.6646   13.8145 H   0  0  0  0  0  0  0  0  0  0  0  0
   -4.5463   -3.7367   13.7755 H   0  0  0  0  0  0  0  0  0  0  0  0
   -5.2017   -2.9629   12.2928 H   0  0  0  0  0  0  0  0  0  0  0  0
   -3.5371   -3.6380   12.2928 H   0  0  0  0  0  0  0  0  0  0  0  0
   -1.3034    2.1198   12.2961 H   0  0  0  0  0  0  0  0  0  0  0  0
   -1.2737    0.6806   11.2217 H   0  0  0  0  0  0  0  0  0  0  0  0
   -2.7003    1.7721   11.2217 H   0  0  0  0  0  0  0  0  0  0  0  0
  1  2  1  0
  1 10  2  0
  2  3  2  0
  3  4  1  0
  3  9  1  0
  4  5  1  0
  4  6  2  0
  5 21  1  0
  6  7  1  0
  7  8  2  0
  7 11  1  0
  8  9  1  0
  9 10  1  0
 11 12  2  0
 11 17  1  0
 12 13  1  0
 13 14  2  0
 14 16  1  0
 14 15  1  0
 16 17  2  0
 16 18  1  0
 18 19  2  0
 18 20  1  0
 21 22  2  0
 21 26  1  0
 22 23  1  0
 23 24  2  0
 24 25  1  0
 24 27  1  0
 25 26  2  0
 25 29  1  0
 27 28  1  0
 29 30  1  0
  1 31  1  0
  5 32  1  0
  8 33  1  0
 10 34  1  0
 12 35  1  0
 13 36  1  0
 17 37  1  0
 20 38  1  0
 20 39  1  0
 22 40  1  0
 23 41  1  0
 26 42  1  0
 28 43  1  0
 28 44  1  0
 28 45  1  0
 30 46  1  0
 30 47  1  0
 30 48  1  0
M  END
>  <s_m_entry_id>  (21) 
21

>  <MODEL>  (21) 
1

>  <REMARK>  (21) 
 VINA RESULT:    -9.603      0.000      0.000
 INTER + INTRA:         -13.073
 INTER:                 -12.410
 INTRA:                  -0.663
 UNBOUND:                -0.663
  Name = /scratch/kmzp800/tmpb48deveb/tmp5iyj0rhq.pdb
  7 active torsions:
  status: ('A' for Active; 'I' for Inactive)
    1  A    between atoms: N2_5  and  C4_6
    2  A    between atoms: C7_9  and  O1_10
    3  A    between atoms: O1_10  and  C8_11
    4  A    between atoms: C9_12  and  O2_13
    5  A    between atoms: O2_13  and  C10_14
    6  A    between atoms: C12_17  and  C13_18
    7  A    between atoms: C17_23  and  C18_24
                            x       y       z     vdW  Elec       q    Type
                         _______ _______ _______ _____ _____    ______ ____

>  <TORSDO>  (21) 
F 5

>  <grid_id>  (21) 
syk-prepared

>  <grid_path>  (21) 
syk_vina.pdbqt

>  <grid_filename>  (21) 
syk_vina.pdbqt

>  <docking_score>  (21) 
-9.603

>  <compound_name>  (21) 
CHEMBL3265008

>  <index_string>  (21) 
20:0:0

>  <s_m_Source_Path>  (21) 
/projects/mai/users/kmzp800_harry/pmx_colab/docking_jobs/syk/vina_prep/output

>  <s_m_Source_File>  (21) 
ptp1b_docked_conformers.sdf

>  <i_m_Source_File_Index>  (21) 
21

$$$$
CHEMBL3265019
     RDKit          3D

 46 50  0  0  1  0  0  0  0  0999 V2000
    5.5250   -0.5840   16.2730 C   0  0  0  0  0  0  0  0  0  0  0  0
    4.2430   -1.0090   16.1480 N   0  0  0  0  0  0  0  0  0  0  0  0
    3.7630   -0.2710   15.1330 C   0  0  0  0  0  0  0  0  0  0  0  0
    2.4770   -0.3190   14.6010 C   0  0  0  0  0  0  0  0  0  0  0  0
    1.5060   -1.2280   15.1380 N   0  0  0  0  0  0  0  0  0  0  0  0
    2.1870    0.5210   13.5630 N   0  0  0  0  0  0  0  0  0  0  0  0
    3.1130    1.3910   13.0470 C   0  0  0  0  0  0  0  0  0  0  0  0
    4.4070    1.4190   13.6050 C   0  0  0  0  0  0  0  0  0  0  0  0
    4.6660    0.5760   14.6320 N   0  0  0  0  0  0  0  0  0  0  0  0
    5.7960    0.4050   15.3310 C   0  0  0  0  0  0  0  0  0  0  0  0
    2.7540    2.2810   11.9240 C   0  0  0  0  0  0  0  0  0  0  0  0
    3.7470    2.6750   10.9890 C   0  0  0  0  0  0  0  0  0  0  0  0
    3.4370    3.5230    9.9080 C   0  0  0  0  0  0  0  0  0  0  0  0
    2.1180    3.9500    9.8040 C   0  0  0  0  0  0  0  0  0  0  0  0
    1.5640    4.7500    8.8840 N   0  0  0  0  0  0  0  0  0  0  0  0
    0.2810    4.8490    9.2300 N   0  0  0  0  0  0  0  0  0  0  0  0
    0.0030    4.1480   10.3280 N   0  0  0  0  0  0  0  0  0  0  0  0
    1.1620    3.5810   10.6900 C   0  0  0  0  0  0  0  0  0  0  0  0
    1.4260    2.7460   11.7690 C   0  0  0  0  0  0  0  0  0  0  0  0
    0.1470   -1.4090   14.7160 C   0  0  0  0  0  0  0  0  0  0  0  0
   -0.5050   -2.5950   15.0590 C   0  0  0  0  0  0  0  0  0  0  0  0
   -1.8270   -2.8150   14.6690 C   0  0  0  0  0  0  0  0  0  0  0  0
   -2.5200   -1.8450   13.9260 C   0  0  0  0  0  0  0  0  0  0  0  0
   -1.8730   -0.6500   13.5760 C   0  0  0  0  0  0  0  0  0  0  0  0
   -0.5420   -0.4390   13.9750 C   0  0  0  0  0  0  0  0  0  0  0  0
   -3.8450   -2.0480   13.5270 O   0  0  0  0  0  0  0  0  0  0  0  0
   -4.2600   -3.1860   12.7850 C   0  0  0  0  0  0  0  0  0  0  0  0
   -2.5720    0.3100   12.8360 O   0  0  0  0  0  0  0  0  0  0  0  0
   -1.9330    1.3980   12.1860 C   0  0  0  0  0  0  0  0  0  0  0  0
    6.2459   -0.9652   17.0113 H   0  0  0  0  0  0  0  0  0  0  0  0
    1.8219   -1.8208   15.9189 H   0  0  0  0  0  0  0  0  0  0  0  0
    5.1789    2.1015   13.2197 H   0  0  0  0  0  0  0  0  0  0  0  0
    6.7473    0.9389   15.1892 H   0  0  0  0  0  0  0  0  0  0  0  0
    4.7779    2.3112   11.1111 H   0  0  0  0  0  0  0  0  0  0  0  0
    4.2020    3.8327    9.1807 H   0  0  0  0  0  0  0  0  0  0  0  0
   -0.9089    4.0604   10.7987 H   0  0  0  0  0  0  0  0  0  0  0  0
    0.6336    2.4575   12.4754 H   0  0  0  0  0  0  0  0  0  0  0  0
    0.0272   -3.3618   15.6410 H   0  0  0  0  0  0  0  0  0  0  0  0
   -2.3293   -3.7538   14.9452 H   0  0  0  0  0  0  0  0  0  0  0  0
   -0.0350    0.4984   13.7026 H   0  0  0  0  0  0  0  0  0  0  0  0
   -4.5527   -3.9887   13.4778 H   0  0  0  0  0  0  0  0  0  0  0  0
   -5.1181   -2.9176   12.1513 H   0  0  0  0  0  0  0  0  0  0  0  0
   -3.4305   -3.5330   12.1513 H   0  0  0  0  0  0  0  0  0  0  0  0
   -1.5274    2.0886   12.9400 H   0  0  0  0  0  0  0  0  0  0  0  0
   -1.1137    1.0195   11.5571 H   0  0  0  0  0  0  0  0  0  0  0  0
   -2.6626    1.9292   11.5571 H   0  0  0  0  0  0  0  0  0  0  0  0
  1  2  1  0
  1 10  2  0
  2  3  2  0
  3  4  1  0
  3  9  1  0
  4  5  1  0
  4  6  2  0
  5 20  1  0
  6  7  1  0
  7  8  2  0
  7 11  1  0
  8  9  1  0
  9 10  1  0
 11 12  2  0
 11 19  1  0
 12 13  1  0
 13 14  2  0
 14 18  1  0
 14 15  1  0
 15 16  2  0
 16 17  1  0
 17 18  1  0
 18 19  2  0
 20 21  2  0
 20 25  1  0
 21 22  1  0
 22 23  2  0
 23 24  1  0
 23 26  1  0
 24 25  2  0
 24 28  1  0
 26 27  1  0
 28 29  1  0
  1 30  1  0
  5 31  1  0
  8 32  1  0
 10 33  1  0
 12 34  1  0
 13 35  1  0
 17 36  1  0
 19 37  1  0
 21 38  1  0
 22 39  1  0
 25 40  1  0
 27 41  1  0
 27 42  1  0
 27 43  1  0
 29 44  1  0
 29 45  1  0
 29 46  1  0
M  END
>  <s_m_entry_id>  (22) 
22

>  <MODEL>  (22) 
1

>  <REMARK>  (22) 
 VINA RESULT:    -9.405      0.000      0.000
 INTER + INTRA:         -12.054
 INTER:                 -11.605
 INTRA:                  -0.450
 UNBOUND:                -0.450
  Name = /scratch/kmzp800/tmpsfgh7zsp/tmpgnu1hgn2.pdb
  6 active torsions:
  status: ('A' for Active; 'I' for Inactive)
    1  A    between atoms: N2_5  and  C4_6
    2  A    between atoms: C7_9  and  O1_10
    3  A    between atoms: O1_10  and  C8_11
    4  A    between atoms: C9_12  and  O2_13
    5  A    between atoms: O2_13  and  C10_14
    6  A    between atoms: C12_17  and  C13_18
                            x       y       z     vdW  Elec       q    Type
                         _______ _______ _______ _____ _____    ______ ____

>  <TORSDO>  (22) 
F 4

>  <grid_id>  (22) 
syk-prepared

>  <grid_path>  (22) 
syk_vina.pdbqt

>  <grid_filename>  (22) 
syk_vina.pdbqt

>  <docking_score>  (22) 
-9.405

>  <compound_name>  (22) 
CHEMBL3265019

>  <index_string>  (22) 
21:0:0

>  <s_m_Source_Path>  (22) 
/projects/mai/users/kmzp800_harry/pmx_colab/docking_jobs/syk/vina_prep/output

>  <s_m_Source_File>  (22) 
ptp1b_docked_conformers.sdf

>  <i_m_Source_File_Index>  (22) 
22

$$$$
CHEMBL3265013
     RDKit          3D

 51 54  0  0  1  0  0  0  0  0999 V2000
    6.1300    0.0440   15.7880 C   0  0  0  0  0  0  0  0  0  0  0  0
    5.7630    0.8580   14.7660 N   0  0  0  0  0  0  0  0  0  0  0  0
    4.4830    0.5210   14.5380 C   0  0  0  0  0  0  0  0  0  0  0  0
    3.6340    1.0680   13.5790 C   0  0  0  0  0  0  0  0  0  0  0  0
    4.0970    2.1040   12.7010 N   0  0  0  0  0  0  0  0  0  0  0  0
    2.3590    0.5810   13.5100 N   0  0  0  0  0  0  0  0  0  0  0  0
    1.9080   -0.4090   14.3450 C   0  0  0  0  0  0  0  0  0  0  0  0
    2.7880   -0.9440   15.3060 C   0  0  0  0  0  0  0  0  0  0  0  0
    4.0450   -0.4430   15.3520 N   0  0  0  0  0  0  0  0  0  0  0  0
    5.0630   -0.7710   16.1580 C   0  0  0  0  0  0  0  0  0  0  0  0
    0.5190   -0.8990   14.2270 C   0  0  0  0  0  0  0  0  0  0  0  0
   -0.4500   -0.1170   13.5880 C   0  0  0  0  0  0  0  0  0  0  0  0
   -1.7630   -0.5720   13.4730 C   0  0  0  0  0  0  0  0  0  0  0  0
   -2.1470   -1.8180   13.9920 C   0  0  0  0  0  0  0  0  0  0  0  0
   -1.1670   -2.6120   14.6400 C   0  0  0  0  0  0  0  0  0  0  0  0
   -1.4660   -3.9500   15.2270 C   0  0  0  0  0  0  0  0  0  0  0  0
    0.1470   -2.1450   14.7490 C   0  0  0  0  0  0  0  0  0  0  0  0
   -3.5630   -2.2330   13.8310 C   0  0  0  0  0  0  0  0  0  0  0  0
   -4.3960   -2.0910   14.7640 O   0  0  0  0  0  0  0  0  0  0  0  0
   -4.0040   -2.8060   12.6020 N   0  0  0  0  0  0  0  0  0  0  0  0
    3.3500    2.7620   11.6700 C   0  0  0  0  0  0  0  0  0  0  0  0
    3.9210    3.1020   10.4370 C   0  0  0  0  0  0  0  0  0  0  0  0
    3.1610    3.7430    9.4580 C   0  0  0  0  0  0  0  0  0  0  0  0
    1.8130    4.0550    9.6970 C   0  0  0  0  0  0  0  0  0  0  0  0
    1.2330    3.7190   10.9290 C   0  0  0  0  0  0  0  0  0  0  0  0
    2.0080    3.0730   11.9080 C   0  0  0  0  0  0  0  0  0  0  0  0
    1.0340    4.6970    8.7280 O   0  0  0  0  0  0  0  0  0  0  0  0
    0.8180    6.1020    8.7220 C   0  0  0  0  0  0  0  0  0  0  0  0
   -0.1110    4.0330   11.1600 O   0  0  0  0  0  0  0  0  0  0  0  0
   -1.0730    3.0610   11.5470 C   0  0  0  0  0  0  0  0  0  0  0  0
    7.1254    0.0300   16.2560 H   0  0  0  0  0  0  0  0  0  0  0  0
    5.0732    2.4082   12.8253 H   0  0  0  0  0  0  0  0  0  0  0  0
    2.4658   -1.7396   15.9939 H   0  0  0  0  0  0  0  0  0  0  0  0
    5.0575   -1.5315   16.9527 H   0  0  0  0  0  0  0  0  0  0  0  0
   -0.1737    0.8637   13.1735 H   0  0  0  0  0  0  0  0  0  0  0  0
   -2.5106    0.0564   12.9668 H   0  0  0  0  0  0  0  0  0  0  0  0
   -1.4505   -3.8806   16.3247 H   0  0  0  0  0  0  0  0  0  0  0  0
   -2.4605   -4.2823   14.8946 H   0  0  0  0  0  0  0  0  0  0  0  0
   -0.7075   -4.6740   14.8946 H   0  0  0  0  0  0  0  0  0  0  0  0
    0.9014   -2.7667   15.2533 H   0  0  0  0  0  0  0  0  0  0  0  0
   -4.9868   -3.0937   12.4913 H   0  0  0  0  0  0  0  0  0  0  0  0
   -3.3398   -2.9322   11.8250 H   0  0  0  0  0  0  0  0  0  0  0  0
    4.9761    2.8620   10.2391 H   0  0  0  0  0  0  0  0  0  0  0  0
    3.6204    4.0054    8.4936 H   0  0  0  0  0  0  0  0  0  0  0  0
    1.5525    2.8088   12.8738 H   0  0  0  0  0  0  0  0  0  0  0  0
    0.7616    6.4687    9.7575 H   0  0  0  0  0  0  0  0  0  0  0  0
    1.6503    6.5987    8.2019 H   0  0  0  0  0  0  0  0  0  0  0  0
   -0.1251    6.3258    8.2019 H   0  0  0  0  0  0  0  0  0  0  0  0
   -1.1225    3.0110   12.6447 H   0  0  0  0  0  0  0  0  0  0  0  0
   -2.0589    3.3417   11.1479 H   0  0  0  0  0  0  0  0  0  0  0  0
   -0.7821    2.0781   11.1479 H   0  0  0  0  0  0  0  0  0  0  0  0
  1 10  2  0
  1  2  1  0
  2  3  2  0
  3  9  1  0
  3  4  1  0
  4  5  1  0
  4  6  2  0
  5 21  1  0
  6  7  1  0
  7  8  2  0
  7 11  1  0
  8  9  1  0
  9 10  1  0
 11 17  1  0
 11 12  2  0
 12 13  1  0
 13 14  2  0
 14 15  1  0
 14 18  1  0
 15 17  2  0
 15 16  1  0
 18 19  2  0
 18 20  1  0
 21 26  1  0
 21 22  2  0
 22 23  1  0
 23 24  2  0
 24 25  1  0
 24 27  1  0
 25 29  1  0
 25 26  2  0
 27 28  1  0
 29 30  1  0
  1 31  1  0
  5 32  1  0
  8 33  1  0
 10 34  1  0
 12 35  1  0
 13 36  1  0
 16 37  1  0
 16 38  1  0
 16 39  1  0
 17 40  1  0
 20 41  1  0
 20 42  1  0
 22 43  1  0
 23 44  1  0
 26 45  1  0
 28 46  1  0
 28 47  1  0
 28 48  1  0
 30 49  1  0
 30 50  1  0
 30 51  1  0
M  END
>  <s_m_entry_id>  (23) 
23

>  <MODEL>  (23) 
1

>  <REMARK>  (23) 
 VINA RESULT:    -9.253      0.000      0.000
 INTER + INTRA:         -12.493
 INTER:                 -11.958
 INTRA:                  -0.535
 UNBOUND:                -0.535
  Name = /scratch/kmzp800/tmp0jpuqaqu/tmp20defrb8.pdb
  8 active torsions:
  status: ('A' for Active; 'I' for Inactive)
    1  A    between atoms: N2_5  and  C4_6
    2  A    between atoms: C7_9  and  O1_10
    3  A    between atoms: O1_10  and  C8_11
    4  A    between atoms: C9_12  and  O2_13
    5  A    between atoms: O2_13  and  C10_14
    6  A    between atoms: C12_17  and  C13_18
    7  A    between atoms: C16_21  and  C17_22
    8  A    between atoms: C18_25  and  C19_26
                            x       y       z     vdW  Elec       q    Type
                         _______ _______ _______ _____ _____    ______ ____

>  <TORSDO>  (23) 
F 5

>  <grid_id>  (23) 
syk-prepared

>  <grid_path>  (23) 
syk_vina.pdbqt

>  <grid_filename>  (23) 
syk_vina.pdbqt

>  <docking_score>  (23) 
-9.253

>  <compound_name>  (23) 
CHEMBL3265013

>  <index_string>  (23) 
22:0:0

>  <s_m_Source_Path>  (23) 
/projects/mai/users/kmzp800_harry/pmx_colab/docking_jobs/syk/vina_prep/output

>  <s_m_Source_File>  (23) 
ptp1b_docked_conformers.sdf

>  <i_m_Source_File_Index>  (23) 
23

$$$$
CHEMBL3265015
     RDKit          3D

 51 54  0  0  1  0  0  0  0  0999 V2000
    4.5360    2.1070   12.6000 C   0  0  0  0  0  0  0  0  0  0  0  0
    3.4190    2.6780   12.0820 N   0  0  0  0  0  0  0  0  0  0  0  0
    2.4290    1.8700   12.4980 C   0  0  0  0  0  0  0  0  0  0  0  0
    1.0710    2.0130   12.2360 C   0  0  0  0  0  0  0  0  0  0  0  0
    0.5900    3.1110   11.4460 N   0  0  0  0  0  0  0  0  0  0  0  0
    0.2250    1.0740   12.7560 N   0  0  0  0  0  0  0  0  0  0  0  0
    0.6670    0.0180   13.5140 C   0  0  0  0  0  0  0  0  0  0  0  0
    2.0480   -0.0950   13.7600 C   0  0  0  0  0  0  0  0  0  0  0  0
    2.8670    0.8460   13.2330 N   0  0  0  0  0  0  0  0  0  0  0  0
    4.1980    0.9630   13.3190 C   0  0  0  0  0  0  0  0  0  0  0  0
   -0.3270   -0.9620   14.0430 C   0  0  0  0  0  0  0  0  0  0  0  0
    0.1510   -1.9570   14.9120 C   0  0  0  0  0  0  0  0  0  0  0  0
   -0.7010   -2.9170   15.4580 C   0  0  0  0  0  0  0  0  0  0  0  0
   -2.0620   -2.9090   15.1460 C   0  0  0  0  0  0  0  0  0  0  0  0
   -2.5580   -1.9270   14.2820 C   0  0  0  0  0  0  0  0  0  0  0  0
   -1.7150   -0.9580   13.7290 C   0  0  0  0  0  0  0  0  0  0  0  0
   -2.3520    0.0400   12.8220 C   0  0  0  0  0  0  0  0  0  0  0  0
   -2.9650   -3.9230   15.7210 C   0  0  0  0  0  0  0  0  0  0  0  0
   -3.1450   -5.0220   15.1310 O   0  0  0  0  0  0  0  0  0  0  0  0
   -3.6440   -3.6720   16.9480 N   0  0  0  0  0  0  0  0  0  0  0  0
   -0.7710    3.3920   11.0920 C   0  0  0  0  0  0  0  0  0  0  0  0
   -1.2410    3.2570    9.7790 C   0  0  0  0  0  0  0  0  0  0  0  0
   -2.5730    3.5410    9.4740 C   0  0  0  0  0  0  0  0  0  0  0  0
   -3.4570    3.9650   10.4770 C   0  0  0  0  0  0  0  0  0  0  0  0
   -2.9940    4.1030   11.7950 C   0  0  0  0  0  0  0  0  0  0  0  0
   -1.6510    3.8150   12.0910 C   0  0  0  0  0  0  0  0  0  0  0  0
   -4.7960    4.2540   10.1900 O   0  0  0  0  0  0  0  0  0  0  0  0
   -5.2360    5.5440    9.7910 C   0  0  0  0  0  0  0  0  0  0  0  0
   -3.8810    4.5260   12.7910 O   0  0  0  0  0  0  0  0  0  0  0  0
   -3.7470    5.7730   13.4610 C   0  0  0  0  0  0  0  0  0  0  0  0
    5.5585    2.4914   12.4709 H   0  0  0  0  0  0  0  0  0  0  0  0
    1.3003    3.7691   11.0950 H   0  0  0  0  0  0  0  0  0  0  0  0
    2.4502   -0.9229   14.3623 H   0  0  0  0  0  0  0  0  0  0  0  0
    4.8867    0.2903   13.8510 H   0  0  0  0  0  0  0  0  0  0  0  0
    1.2207   -1.9795   15.1675 H   0  0  0  0  0  0  0  0  0  0  0  0
   -0.2991   -3.6834   16.1371 H   0  0  0  0  0  0  0  0  0  0  0  0
   -3.6295   -1.9169   14.0334 H   0  0  0  0  0  0  0  0  0  0  0  0
   -2.8479    0.8170   13.4223 H   0  0  0  0  0  0  0  0  0  0  0  0
   -1.5819    0.5028   12.1874 H   0  0  0  0  0  0  0  0  0  0  0  0
   -3.0960   -0.4637   12.1874 H   0  0  0  0  0  0  0  0  0  0  0  0
   -4.2732   -4.3851   17.3436 H   0  0  0  0  0  0  0  0  0  0  0  0
   -3.5057   -2.7775   17.4395 H   0  0  0  0  0  0  0  0  0  0  0  0
   -0.5565    2.9254    8.9843 H   0  0  0  0  0  0  0  0  0  0  0  0
   -2.9320    3.4316    8.4400 H   0  0  0  0  0  0  0  0  0  0  0  0
   -1.2876    3.9241   13.1235 H   0  0  0  0  0  0  0  0  0  0  0  0
   -5.4437    6.1528   10.6833 H   0  0  0  0  0  0  0  0  0  0  0  0
   -4.4525    6.0291    9.1903 H   0  0  0  0  0  0  0  0  0  0  0  0
   -6.1526    5.4492    9.1903 H   0  0  0  0  0  0  0  0  0  0  0  0
   -3.7647    5.6087   14.5485 H   0  0  0  0  0  0  0  0  0  0  0  0
   -2.7933    6.2415   13.1764 H   0  0  0  0  0  0  0  0  0  0  0  0
   -4.5793    6.4335   13.1764 H   0  0  0  0  0  0  0  0  0  0  0  0
  1 10  2  0
  1  2  1  0
  2  3  2  0
  3  9  1  0
  3  4  1  0
  4  6  2  0
  4  5  1  0
  5 21  1  0
  6  7  1  0
  7  8  2  0
  7 11  1  0
  8  9  1  0
  9 10  1  0
 11 12  2  0
 11 16  1  0
 12 13  1  0
 13 14  2  0
 14 18  1  0
 14 15  1  0
 15 16  2  0
 16 17  1  0
 18 20  1  0
 18 19  2  0
 21 26  1  0
 21 22  2  0
 22 23  1  0
 23 24  2  0
 24 25  1  0
 24 27  1  0
 25 26  2  0
 25 29  1  0
 27 28  1  0
 29 30  1  0
  1 31  1  0
  5 32  1  0
  8 33  1  0
 10 34  1  0
 12 35  1  0
 13 36  1  0
 15 37  1  0
 17 38  1  0
 17 39  1  0
 17 40  1  0
 20 41  1  0
 20 42  1  0
 22 43  1  0
 23 44  1  0
 26 45  1  0
 28 46  1  0
 28 47  1  0
 28 48  1  0
 30 49  1  0
 30 50  1  0
 30 51  1  0
M  END
>  <s_m_entry_id>  (24) 
24

>  <MODEL>  (24) 
1

>  <REMARK>  (24) 
 VINA RESULT:    -8.310      0.000      0.000
 INTER + INTRA:         -11.009
 INTER:                 -10.739
 INTRA:                  -0.270
 UNBOUND:                -0.270
  Name = /scratch/kmzp800/tmprt4jf7fx/tmpyym5tb8t.pdb
  8 active torsions:
  status: ('A' for Active; 'I' for Inactive)
    1  A    between atoms: N2_5  and  C4_6
    2  A    between atoms: C7_9  and  O1_10
    3  A    between atoms: O1_10  and  C8_11
    4  A    between atoms: C9_12  and  O2_13
    5  A    between atoms: O2_13  and  C10_14
    6  A    between atoms: C12_17  and  C13_18
    7  A    between atoms: C16_21  and  C17_22
    8  A    between atoms: C19_26  and  C20_27
                            x       y       z     vdW  Elec       q    Type
                         _______ _______ _______ _____ _____    ______ ____

>  <TORSDO>  (24) 
F 5

>  <grid_id>  (24) 
syk-prepared

>  <grid_path>  (24) 
syk_vina.pdbqt

>  <grid_filename>  (24) 
syk_vina.pdbqt

>  <docking_score>  (24) 
-8.31

>  <compound_name>  (24) 
CHEMBL3265015

>  <index_string>  (24) 
23:0:0

>  <s_m_Source_Path>  (24) 
/projects/mai/users/kmzp800_harry/pmx_colab/docking_jobs/syk/vina_prep/output

>  <s_m_Source_File>  (24) 
ptp1b_docked_conformers.sdf

>  <i_m_Source_File_Index>  (24) 
24

$$$$
CHEMBL3264996
     RDKit          3D

 64 68  0  0  1  0  0  0  0  0999 V2000
    5.9070   -0.5680   16.5080 C   0  0  0  0  0  0  0  0  0  0  0  0
    4.6070   -0.9540   16.4680 N   0  0  0  0  0  0  0  0  0  0  0  0
    4.1050   -0.2620   15.4310 C   0  0  0  0  0  0  0  0  0  0  0  0
    2.7960   -0.3040   14.9570 C   0  0  0  0  0  0  0  0  0  0  0  0
    1.8100   -1.1270   15.5960 N   0  0  0  0  0  0  0  0  0  0  0  0
    2.4830    0.4900   13.8900 N   0  0  0  0  0  0  0  0  0  0  0  0
    3.4110    1.2930   13.2800 C   0  0  0  0  0  0  0  0  0  0  0  0
    4.7310    1.3060   13.7710 C   0  0  0  0  0  0  0  0  0  0  0  0
    5.0110    0.5170   14.8360 N   0  0  0  0  0  0  0  0  0  0  0  0
    6.1660    0.3500   15.4920 C   0  0  0  0  0  0  0  0  0  0  0  0
    0.5110   -1.4420   15.0820 C   0  0  0  0  0  0  0  0  0  0  0  0
   -0.0760   -2.6610   15.4290 C   0  0  0  0  0  0  0  0  0  0  0  0
   -1.3310   -3.0090   14.9240 C   0  0  0  0  0  0  0  0  0  0  0  0
   -2.0140   -2.1420   14.0560 C   0  0  0  0  0  0  0  0  0  0  0  0
   -1.4260   -0.9230   13.6900 C   0  0  0  0  0  0  0  0  0  0  0  0
   -0.1660   -0.5810   14.2070 C   0  0  0  0  0  0  0  0  0  0  0  0
   -3.2740   -2.4740   13.5430 O   0  0  0  0  0  0  0  0  0  0  0  0
   -4.3750   -2.8220   14.3710 C   0  0  0  0  0  0  0  0  0  0  0  0
   -2.1040   -0.0700   12.8120 O   0  0  0  0  0  0  0  0  0  0  0  0
   -1.4550    0.6060   11.7440 C   0  0  0  0  0  0  0  0  0  0  0  0
    3.0160    2.1370   12.1330 C   0  0  0  0  0  0  0  0  0  0  0  0
    3.9320    2.4470   11.1150 C   0  0  0  0  0  0  0  0  0  0  0  0
    3.5470    3.2460   10.0370 C   0  0  0  0  0  0  0  0  0  0  0  0
    2.2460    3.7470    9.9670 C   0  0  0  0  0  0  0  0  0  0  0  0
    1.3180    3.4520   10.9750 C   0  0  0  0  0  0  0  0  0  0  0  0
    1.7110    2.6450   12.0520 C   0  0  0  0  0  0  0  0  0  0  0  0
   -0.0530    3.9890   10.9070 C   0  0  0  0  0  0  0  0  0  0  0  0
   -0.4840    4.4660    9.8220 O   0  0  0  0  0  0  0  0  0  0  0  0
   -0.8880    3.9570   12.0740 N   0  0  0  0  0  0  0  0  0  0  0  0
   -2.2310    4.4500   12.1840 C   0  0  0  0  0  0  0  0  0  0  0  0
   -3.3200    3.7730   11.6160 C   0  0  0  0  0  0  0  0  0  0  0  0
   -4.6150    4.2840   11.7420 C   0  0  0  0  0  0  0  0  0  0  0  0
   -4.8370    5.4790   12.4390 C   0  0  0  0  0  0  0  0  0  0  0  0
   -3.7480    6.1560   13.0070 C   0  0  0  0  0  0  0  0  0  0  0  0
   -2.4550    5.6420   12.8790 C   0  0  0  0  0  0  0  0  0  0  0  0
   -6.2020    6.0140   12.5700 C   0  0  0  0  0  0  0  0  0  0  0  0
   -6.5460    6.6170   13.6250 O   0  0  0  0  0  0  0  0  0  0  0  0
   -7.1130    5.8530   11.5230 O   0  0  0  0  0  0  0  0  0  0  0  0
   -7.3300    6.8670   10.5540 C   0  0  0  0  0  0  0  0  0  0  0  0
    6.6487   -0.9274   17.2365 H   0  0  0  0  0  0  0  0  0  0  0  0
    2.0599   -1.5293   16.5107 H   0  0  0  0  0  0  0  0  0  0  0  0
    5.5060    1.9337   13.3068 H   0  0  0  0  0  0  0  0  0  0  0  0
    7.1266    0.8392   15.2730 H   0  0  0  0  0  0  0  0  0  0  0  0
    0.4528   -3.3506   16.1035 H   0  0  0  0  0  0  0  0  0  0  0  0
   -1.7873   -3.9687   15.2082 H   0  0  0  0  0  0  0  0  0  0  0  0
    0.2961    0.3755   13.9215 H   0  0  0  0  0  0  0  0  0  0  0  0
   -4.0829   -2.7297   15.4275 H   0  0  0  0  0  0  0  0  0  0  0  0
   -5.2179   -2.1465   14.1633 H   0  0  0  0  0  0  0  0  0  0  0  0
   -4.6766   -3.8593   14.1633 H   0  0  0  0  0  0  0  0  0  0  0  0
   -0.7476    1.3428   12.1524 H   0  0  0  0  0  0  0  0  0  0  0  0
   -0.9096   -0.1227   11.1264 H   0  0  0  0  0  0  0  0  0  0  0  0
   -2.2053    1.1213   11.1264 H   0  0  0  0  0  0  0  0  0  0  0  0
    4.9595    2.0578   11.1673 H   0  0  0  0  0  0  0  0  0  0  0  0
    4.2697    3.4811    9.2418 H   0  0  0  0  0  0  0  0  0  0  0  0
    1.9475    4.3768    9.1160 H   0  0  0  0  0  0  0  0  0  0  0  0
    0.9861    2.4069   12.8443 H   0  0  0  0  0  0  0  0  0  0  0  0
   -0.4805    3.5361   12.9212 H   0  0  0  0  0  0  0  0  0  0  0  0
   -3.1540    2.8339   11.0678 H   0  0  0  0  0  0  0  0  0  0  0  0
   -5.4627    3.7461   11.2924 H   0  0  0  0  0  0  0  0  0  0  0  0
   -3.9124    7.0953   13.5554 H   0  0  0  0  0  0  0  0  0  0  0  0
   -1.6070    6.1794   13.3285 H   0  0  0  0  0  0  0  0  0  0  0  0
   -7.5342    7.8214   11.0614 H   0  0  0  0  0  0  0  0  0  0  0  0
   -6.4337    6.9707    9.9248 H   0  0  0  0  0  0  0  0  0  0  0  0
   -8.1902    6.5948    9.9248 H   0  0  0  0  0  0  0  0  0  0  0  0
  1  2  1  0
  1 10  2  0
  2  3  2  0
  3  4  1  0
  3  9  1  0
  4  5  1  0
  4  6  2  0
  5 11  1  0
  6  7  1  0
  7  8  2  0
  7 21  1  0
  8  9  1  0
  9 10  1  0
 11 12  2  0
 11 16  1  0
 12 13  1  0
 13 14  2  0
 14 15  1  0
 14 17  1  0
 15 16  2  0
 15 19  1  0
 17 18  1  0
 19 20  1  0
 21 22  2  0
 21 26  1  0
 22 23  1  0
 23 24  2  0
 24 25  1  0
 25 26  2  0
 25 27  1  0
 27 29  1  0
 27 28  2  0
 29 30  1  0
 30 35  1  0
 30 31  2  0
 31 32  1  0
 32 33  2  0
 33 36  1  0
 33 34  1  0
 34 35  2  0
 36 37  2  0
 36 38  1  0
 38 39  1  0
  1 40  1  0
  5 41  1  0
  8 42  1  0
 10 43  1  0
 12 44  1  0
 13 45  1  0
 16 46  1  0
 18 47  1  0
 18 48  1  0
 18 49  1  0
 20 50  1  0
 20 51  1  0
 20 52  1  0
 22 53  1  0
 23 54  1  0
 24 55  1  0
 26 56  1  0
 29 57  1  0
 31 58  1  0
 32 59  1  0
 34 60  1  0
 35 61  1  0
 39 62  1  0
 39 63  1  0
 39 64  1  0
M  END
>  <s_m_entry_id>  (25) 
25

>  <MODEL>  (25) 
1

>  <REMARK>  (25) 
 VINA RESULT:   -10.285      0.000      0.000
 INTER + INTRA:         -16.197
 INTER:                 -15.095
 INTRA:                  -1.102
 UNBOUND:                -1.102
  Name = /scratch/kmzp800/tmplfij1_5u/tmp9ubqv3no.pdb
  11 active torsions:
  status: ('A' for Active; 'I' for Inactive)
    1  A    between atoms: N2_5  and  C4_6
    2  A    between atoms: C7_9  and  O1_10
    3  A    between atoms: O1_10  and  C8_11
    4  A    between atoms: C9_12  and  O2_13
    5  A    between atoms: O2_13  and  C10_14
    6  A    between atoms: C12_17  and  C13_18
    7  A    between atoms: C17_22  and  C18_23
    8  A    between atoms: N4_25  and  C19_26
    9  A    between atoms: C22_29  and  C23_30
   10  A    between atoms: C23_30  and  O5_32
   11  A    between atoms: O5_32  and  C24_33
                            x       y       z     vdW  Elec       q    Type
                         _______ _______ _______ _____ _____    ______ ____

>  <TORSDO>  (25) 
F 8

>  <grid_id>  (25) 
syk-prepared

>  <grid_path>  (25) 
syk_vina.pdbqt

>  <grid_filename>  (25) 
syk_vina.pdbqt

>  <docking_score>  (25) 
-10.285

>  <compound_name>  (25) 
CHEMBL3264996

>  <index_string>  (25) 
24:0:0

>  <s_m_Source_Path>  (25) 
/projects/mai/users/kmzp800_harry/pmx_colab/docking_jobs/syk/vina_prep/output

>  <s_m_Source_File>  (25) 
ptp1b_docked_conformers.sdf

>  <i_m_Source_File_Index>  (25) 
25

$$$$
CHEMBL3265022
     RDKit          3D

 50 54  0  0  1  0  0  0  0  0999 V2000
    5.5520   -0.6350   16.3740 C   0  0  0  0  0  0  0  0  0  0  0  0
    4.2660   -1.0470   16.2310 N   0  0  0  0  0  0  0  0  0  0  0  0
    3.8060   -0.2970   15.2150 C   0  0  0  0  0  0  0  0  0  0  0  0
    2.5250   -0.3310   14.6680 C   0  0  0  0  0  0  0  0  0  0  0  0
    1.5400   -1.2340   15.1880 N   0  0  0  0  0  0  0  0  0  0  0  0
    2.2560    0.5180   13.6310 N   0  0  0  0  0  0  0  0  0  0  0  0
    3.1980    1.3810   13.1310 C   0  0  0  0  0  0  0  0  0  0  0  0
    4.4850    1.3940   13.7050 C   0  0  0  0  0  0  0  0  0  0  0  0
    4.7230    0.5420   14.7290 N   0  0  0  0  0  0  0  0  0  0  0  0
    5.8430    0.3570   15.4400 C   0  0  0  0  0  0  0  0  0  0  0  0
    2.8600    2.2820   12.0090 C   0  0  0  0  0  0  0  0  0  0  0  0
    3.8270    2.5570   11.0090 C   0  0  0  0  0  0  0  0  0  0  0  0
    3.5360    3.4100    9.9290 C   0  0  0  0  0  0  0  0  0  0  0  0
    2.2660    3.9720    9.8850 C   0  0  0  0  0  0  0  0  0  0  0  0
    1.6770    4.8320    8.9770 C   0  0  0  0  0  0  0  0  0  0  0  0
    0.4120    5.0670    9.4130 N   0  0  0  0  0  0  0  0  0  0  0  0
    0.2120    4.3890   10.5360 N   0  0  0  0  0  0  0  0  0  0  0  0
   -1.0330    4.4010   11.2860 C   0  0  0  0  0  0  0  0  0  0  0  0
    1.3280    3.7160   10.8400 C   0  0  0  0  0  0  0  0  0  0  0  0
    1.5800    2.8770   11.9230 C   0  0  0  0  0  0  0  0  0  0  0  0
    0.1850   -1.3990   14.7480 C   0  0  0  0  0  0  0  0  0  0  0  0
   -0.4890   -2.5730   15.0910 C   0  0  0  0  0  0  0  0  0  0  0  0
   -1.8080   -2.7760   14.6850 C   0  0  0  0  0  0  0  0  0  0  0  0
   -2.4760   -1.8030   13.9250 C   0  0  0  0  0  0  0  0  0  0  0  0
   -1.8090   -0.6190   13.5760 C   0  0  0  0  0  0  0  0  0  0  0  0
   -0.4790   -0.4240   13.9900 C   0  0  0  0  0  0  0  0  0  0  0  0
   -3.7990   -1.9900   13.5090 O   0  0  0  0  0  0  0  0  0  0  0  0
   -4.2340   -3.1620   12.8340 C   0  0  0  0  0  0  0  0  0  0  0  0
   -2.4840    0.3440   12.8190 O   0  0  0  0  0  0  0  0  0  0  0  0
   -1.8510    1.1100   11.8050 C   0  0  0  0  0  0  0  0  0  0  0  0
    6.2605   -1.0272   17.1185 H   0  0  0  0  0  0  0  0  0  0  0  0
    1.8408   -1.8344   15.9690 H   0  0  0  0  0  0  0  0  0  0  0  0
    5.2677    2.0721   13.3341 H   0  0  0  0  0  0  0  0  0  0  0  0
    6.8006    0.8829   15.3121 H   0  0  0  0  0  0  0  0  0  0  0  0
    4.8228    2.0949   11.0791 H   0  0  0  0  0  0  0  0  0  0  0  0
    4.2836    3.6235    9.1508 H   0  0  0  0  0  0  0  0  0  0  0  0
    2.1444    5.2476    8.0721 H   0  0  0  0  0  0  0  0  0  0  0  0
   -0.8120    4.3989   12.3636 H   0  0  0  0  0  0  0  0  0  0  0  0
   -1.6060    5.3047   11.0310 H   0  0  0  0  0  0  0  0  0  0  0  0
   -1.6233    3.5085   11.0310 H   0  0  0  0  0  0  0  0  0  0  0  0
    0.8102    2.6840   12.6847 H   0  0  0  0  0  0  0  0  0  0  0  0
    0.0239   -3.3432   15.6856 H   0  0  0  0  0  0  0  0  0  0  0  0
   -2.3282   -3.7047   14.9622 H   0  0  0  0  0  0  0  0  0  0  0  0
    0.0458    0.5032   13.7162 H   0  0  0  0  0  0  0  0  0  0  0  0
   -4.5177   -3.9264   13.5724 H   0  0  0  0  0  0  0  0  0  0  0  0
   -5.1026   -2.9210   12.2035 H   0  0  0  0  0  0  0  0  0  0  0  0
   -3.4185   -3.5460   12.2035 H   0  0  0  0  0  0  0  0  0  0  0  0
   -1.2157    1.8788   12.2690 H   0  0  0  0  0  0  0  0  0  0  0  0
   -1.2311    0.4502   11.1802 H   0  0  0  0  0  0  0  0  0  0  0  0
   -2.6158    1.5945   11.1802 H   0  0  0  0  0  0  0  0  0  0  0  0
  1  2  1  0
  1 10  2  0
  2  3  2  0
  3  4  1  0
  3  9  1  0
  4  5  1  0
  4  6  2  0
  5 21  1  0
  6  7  1  0
  7  8  2  0
  7 11  1  0
  8  9  1  0
  9 10  1  0
 11 12  2  0
 11 20  1  0
 12 13  1  0
 13 14  2  0
 14 19  1  0
 14 15  1  0
 15 16  2  0
 16 17  1  0
 17 19  1  0
 17 18  1  0
 19 20  2  0
 21 22  2  0
 21 26  1  0
 22 23  1  0
 23 24  2  0
 24 25  1  0
 24 27  1  0
 25 26  2  0
 25 29  1  0
 27 28  1  0
 29 30  1  0
  1 31  1  0
  5 32  1  0
  8 33  1  0
 10 34  1  0
 12 35  1  0
 13 36  1  0
 15 37  1  0
 18 38  1  0
 18 39  1  0
 18 40  1  0
 20 41  1  0
 22 42  1  0
 23 43  1  0
 26 44  1  0
 28 45  1  0
 28 46  1  0
 28 47  1  0
 30 48  1  0
 30 49  1  0
 30 50  1  0
M  END
>  <s_m_entry_id>  (26) 
26

>  <MODEL>  (26) 
1

>  <REMARK>  (26) 
 VINA RESULT:    -9.629      0.000      0.000
 INTER + INTRA:         -12.275
 INTER:                 -11.881
 INTRA:                  -0.394
 UNBOUND:                -0.394
  Name = /scratch/kmzp800/tmp258bdcsn/tmpe5glqhpc.pdb
  7 active torsions:
  status: ('A' for Active; 'I' for Inactive)
    1  A    between atoms: N2_5  and  C4_6
    2  A    between atoms: C7_9  and  O1_10
    3  A    between atoms: O1_10  and  C8_11
    4  A    between atoms: C9_12  and  O2_13
    5  A    between atoms: O2_13  and  C10_14
    6  A    between atoms: C12_17  and  C13_18
    7  A    between atoms: N5_24  and  C18_25
                            x       y       z     vdW  Elec       q    Type
                         _______ _______ _______ _____ _____    ______ ____

>  <TORSDO>  (26) 
F 4

>  <grid_id>  (26) 
syk-prepared

>  <grid_path>  (26) 
syk_vina.pdbqt

>  <grid_filename>  (26) 
syk_vina.pdbqt

>  <docking_score>  (26) 
-9.629

>  <compound_name>  (26) 
CHEMBL3265022

>  <index_string>  (26) 
25:0:0

>  <s_m_Source_Path>  (26) 
/projects/mai/users/kmzp800_harry/pmx_colab/docking_jobs/syk/vina_prep/output

>  <s_m_Source_File>  (26) 
ptp1b_docked_conformers.sdf

>  <i_m_Source_File_Index>  (26) 
26

$$$$
CHEMBL3264995
     RDKit          3D

 61 65  0  0  1  0  0  0  0  0999 V2000
    5.8300   -0.5020   16.3440 C   0  0  0  0  0  0  0  0  0  0  0  0
    4.5530   -0.9500   16.2450 N   0  0  0  0  0  0  0  0  0  0  0  0
    4.0470   -0.2390   15.2240 C   0  0  0  0  0  0  0  0  0  0  0  0
    2.7550   -0.3180   14.7100 C   0  0  0  0  0  0  0  0  0  0  0  0
    1.8000   -1.2280   15.2720 N   0  0  0  0  0  0  0  0  0  0  0  0
    2.4410    0.4980   13.6610 N   0  0  0  0  0  0  0  0  0  0  0  0
    3.3450    1.3720   13.1150 C   0  0  0  0  0  0  0  0  0  0  0  0
    4.6450    1.4310   13.6530 C   0  0  0  0  0  0  0  0  0  0  0  0
    4.9310    0.6120   14.6930 N   0  0  0  0  0  0  0  0  0  0  0  0
    6.0730    0.4720   15.3780 C   0  0  0  0  0  0  0  0  0  0  0  0
    0.4400   -1.4200   14.8530 C   0  0  0  0  0  0  0  0  0  0  0  0
   -0.2910   -2.5620   15.2030 C   0  0  0  0  0  0  0  0  0  0  0  0
   -1.6120   -2.7120   14.7770 C   0  0  0  0  0  0  0  0  0  0  0  0
   -2.2230   -1.7210   13.9920 C   0  0  0  0  0  0  0  0  0  0  0  0
   -1.4960   -0.5750   13.6380 C   0  0  0  0  0  0  0  0  0  0  0  0
   -0.1670   -0.4330   14.0720 C   0  0  0  0  0  0  0  0  0  0  0  0
   -3.5460   -1.8550   13.5560 O   0  0  0  0  0  0  0  0  0  0  0  0
   -4.0350   -3.0340   12.9300 C   0  0  0  0  0  0  0  0  0  0  0  0
   -2.1120    0.4100   12.8560 O   0  0  0  0  0  0  0  0  0  0  0  0
   -1.5520    0.8870   11.6400 C   0  0  0  0  0  0  0  0  0  0  0  0
    2.9470    2.2290   11.9800 C   0  0  0  0  0  0  0  0  0  0  0  0
    3.8360    2.4990   10.9290 C   0  0  0  0  0  0  0  0  0  0  0  0
    3.4460    3.3130    9.8620 C   0  0  0  0  0  0  0  0  0  0  0  0
    2.1620    3.8630    9.8370 C   0  0  0  0  0  0  0  0  0  0  0  0
    1.2600    3.6060   10.8780 C   0  0  0  0  0  0  0  0  0  0  0  0
    1.6600    2.7890   11.9430 C   0  0  0  0  0  0  0  0  0  0  0  0
   -0.0940    4.1850   10.8540 C   0  0  0  0  0  0  0  0  0  0  0  0
   -0.5180    4.7410    9.8040 O   0  0  0  0  0  0  0  0  0  0  0  0
   -0.9200    4.1120   12.0270 N   0  0  0  0  0  0  0  0  0  0  0  0
   -2.2530    4.6210   12.1730 C   0  0  0  0  0  0  0  0  0  0  0  0
   -2.5230    5.8130   12.8600 C   0  0  0  0  0  0  0  0  0  0  0  0
   -3.8360    6.2770   12.9810 C   0  0  0  0  0  0  0  0  0  0  0  0
   -4.8960    5.5530   12.4170 C   0  0  0  0  0  0  0  0  0  0  0  0
   -4.6260    4.3620   11.7320 C   0  0  0  0  0  0  0  0  0  0  0  0
   -3.3130    3.9000   11.6110 C   0  0  0  0  0  0  0  0  0  0  0  0
   -6.2820    6.0360   12.5430 C   0  0  0  0  0  0  0  0  0  0  0  0
   -6.6840    6.5500   13.6200 O   0  0  0  0  0  0  0  0  0  0  0  0
   -7.1600    5.9300   11.4700 O   0  0  0  0  0  0  0  0  0  0  0  0
    6.5665   -0.8564   17.0802 H   0  0  0  0  0  0  0  0  0  0  0  0
    2.1242   -1.8058   16.0606 H   0  0  0  0  0  0  0  0  0  0  0  0
    5.4008    2.1174   13.2434 H   0  0  0  0  0  0  0  0  0  0  0  0
    7.0141    1.0167   15.2114 H   0  0  0  0  0  0  0  0  0  0  0  0
    0.1781   -3.3450   15.8168 H   0  0  0  0  0  0  0  0  0  0  0  0
   -2.1779   -3.6124   15.0581 H   0  0  0  0  0  0  0  0  0  0  0  0
    0.4024    0.4660   13.7935 H   0  0  0  0  0  0  0  0  0  0  0  0
   -4.3361   -3.7599   13.6997 H   0  0  0  0  0  0  0  0  0  0  0  0
   -4.9033   -2.7831   12.3030 H   0  0  0  0  0  0  0  0  0  0  0  0
   -3.2440   -3.4713   12.3030 H   0  0  0  0  0  0  0  0  0  0  0  0
   -0.7320    1.5855   11.8631 H   0  0  0  0  0  0  0  0  0  0  0  0
   -1.1629    0.0386   11.0579 H   0  0  0  0  0  0  0  0  0  0  0  0
   -2.3277    1.4061   11.0579 H   0  0  0  0  0  0  0  0  0  0  0  0
    4.8474    2.0669   10.9448 H   0  0  0  0  0  0  0  0  0  0  0  0
    4.1496    3.5205    9.0423 H   0  0  0  0  0  0  0  0  0  0  0  0
    1.8573    4.5017    8.9949 H   0  0  0  0  0  0  0  0  0  0  0  0
    0.9556    2.5831   12.7624 H   0  0  0  0  0  0  0  0  0  0  0  0
   -0.5122    3.6451   12.8496 H   0  0  0  0  0  0  0  0  0  0  0  0
   -1.6970    6.3862   13.3062 H   0  0  0  0  0  0  0  0  0  0  0  0
   -4.0384    7.2138   13.5208 H   0  0  0  0  0  0  0  0  0  0  0  0
   -5.4516    3.7873   11.2870 H   0  0  0  0  0  0  0  0  0  0  0  0
   -3.1109    2.9635   11.0705 H   0  0  0  0  0  0  0  0  0  0  0  0
   -7.6169    6.8722   13.6968 H   0  0  0  0  0  0  0  0  0  0  0  0
  1  2  1  0
  1 10  2  0
  2  3  2  0
  3  4  1  0
  3  9  1  0
  4  5  1  0
  4  6  2  0
  5 11  1  0
  6  7  1  0
  7  8  2  0
  7 21  1  0
  8  9  1  0
  9 10  1  0
 11 12  2  0
 11 16  1  0
 12 13  1  0
 13 14  2  0
 14 15  1  0
 14 17  1  0
 15 16  2  0
 15 19  1  0
 17 18  1  0
 19 20  1  0
 21 22  2  0
 21 26  1  0
 22 23  1  0
 23 24  2  0
 24 25  1  0
 25 26  2  0
 25 27  1  0
 27 29  1  0
 27 28  2  0
 29 30  1  0
 30 31  2  0
 30 35  1  0
 31 32  1  0
 32 33  2  0
 33 36  1  0
 33 34  1  0
 34 35  2  0
 36 37  1  0
 36 38  2  0
  1 39  1  0
  5 40  1  0
  8 41  1  0
 10 42  1  0
 12 43  1  0
 13 44  1  0
 16 45  1  0
 18 46  1  0
 18 47  1  0
 18 48  1  0
 20 49  1  0
 20 50  1  0
 20 51  1  0
 22 52  1  0
 23 53  1  0
 24 54  1  0
 26 55  1  0
 29 56  1  0
 31 57  1  0
 32 58  1  0
 34 59  1  0
 35 60  1  0
 37 61  1  0
M  END
>  <s_m_entry_id>  (27) 
27

>  <MODEL>  (27) 
1

>  <REMARK>  (27) 
 VINA RESULT:   -10.770      0.000      0.000
 INTER + INTRA:         -16.026
 INTER:                 -15.177
 INTRA:                  -0.849
 UNBOUND:                -0.849
  Name = /scratch/kmzp800/tmp2zaifds5/tmp0leck6_f.pdb
  9 active torsions:
  status: ('A' for Active; 'I' for Inactive)
    1  A    between atoms: N2_5  and  C4_6
    2  A    between atoms: C7_9  and  O1_10
    3  A    between atoms: O1_10  and  C8_11
    4  A    between atoms: C9_12  and  O2_13
    5  A    between atoms: O2_13  and  C10_14
    6  A    between atoms: C12_17  and  C13_18
    7  A    between atoms: C17_22  and  C18_23
    8  A    between atoms: N4_25  and  C19_26
    9  A    between atoms: C22_29  and  C23_30
                            x       y       z     vdW  Elec       q    Type
                         _______ _______ _______ _____ _____    ______ ____

>  <TORSDO>  (27) 
F 7

>  <grid_id>  (27) 
syk-prepared

>  <grid_path>  (27) 
syk_vina.pdbqt

>  <grid_filename>  (27) 
syk_vina.pdbqt

>  <docking_score>  (27) 
-10.77

>  <compound_name>  (27) 
CHEMBL3264995

>  <index_string>  (27) 
26:0:0

>  <s_m_Source_Path>  (27) 
/projects/mai/users/kmzp800_harry/pmx_colab/docking_jobs/syk/vina_prep/output

>  <s_m_Source_File>  (27) 
ptp1b_docked_conformers.sdf

>  <i_m_Source_File_Index>  (27) 
27

$$$$
CHEMBL3265001
     RDKit          3D

 63 68  0  0  1  0  0  0  0  0999 V2000
    5.8320   -0.5440   16.5180 C   0  0  0  0  0  0  0  0  0  0  0  0
    4.5550   -0.9790   16.3680 N   0  0  0  0  0  0  0  0  0  0  0  0
    4.1080   -0.2870   15.3060 C   0  0  0  0  0  0  0  0  0  0  0  0
    2.8410   -0.3630   14.7340 C   0  0  0  0  0  0  0  0  0  0  0  0
    1.8540   -1.2510   15.2760 N   0  0  0  0  0  0  0  0  0  0  0  0
    2.5840    0.4300   13.6510 N   0  0  0  0  0  0  0  0  0  0  0  0
    3.5270    1.2810   13.1300 C   0  0  0  0  0  0  0  0  0  0  0  0
    4.8000    1.3370   13.7290 C   0  0  0  0  0  0  0  0  0  0  0  0
    5.0260    0.5400   14.8000 N   0  0  0  0  0  0  0  0  0  0  0  0
    6.1320    0.4040   15.5420 C   0  0  0  0  0  0  0  0  0  0  0  0
    0.5110   -1.4540   14.8150 C   0  0  0  0  0  0  0  0  0  0  0  0
   -0.1200   -2.6650   15.1090 C   0  0  0  0  0  0  0  0  0  0  0  0
   -1.4250   -2.9050   14.6790 C   0  0  0  0  0  0  0  0  0  0  0  0
   -2.1230   -1.9330   13.9450 C   0  0  0  0  0  0  0  0  0  0  0  0
   -1.4980   -0.7140   13.6450 C   0  0  0  0  0  0  0  0  0  0  0  0
   -0.1820   -0.4810   14.0820 C   0  0  0  0  0  0  0  0  0  0  0  0
   -3.4320   -2.1570   13.5070 O   0  0  0  0  0  0  0  0  0  0  0  0
   -4.2630   -3.1720   14.0530 C   0  0  0  0  0  0  0  0  0  0  0  0
   -2.2020    0.2490   12.9130 O   0  0  0  0  0  0  0  0  0  0  0  0
   -1.6510    0.9170   11.7870 C   0  0  0  0  0  0  0  0  0  0  0  0
    3.2040    2.1190   11.9570 C   0  0  0  0  0  0  0  0  0  0  0  0
    4.1300    2.2560   10.9140 C   0  0  0  0  0  0  0  0  0  0  0  0
    3.8320    3.0470    9.8010 C   0  0  0  0  0  0  0  0  0  0  0  0
    2.6050    3.7080    9.7210 C   0  0  0  0  0  0  0  0  0  0  0  0
    1.6650    3.5840   10.7540 C   0  0  0  0  0  0  0  0  0  0  0  0
    1.9730    2.7890   11.8670 C   0  0  0  0  0  0  0  0  0  0  0  0
    0.3700    4.2810   10.6700 C   0  0  0  0  0  0  0  0  0  0  0  0
    0.1700    5.1210    9.7490 O   0  0  0  0  0  0  0  0  0  0  0  0
   -0.6530    3.9990   11.6370 N   0  0  0  0  0  0  0  0  0  0  0  0
   -1.9620    4.5840   11.7000 C   0  0  0  0  0  0  0  0  0  0  0  0
   -2.9050    4.4080   10.6770 C   0  0  0  0  0  0  0  0  0  0  0  0
   -4.1700    4.9940   10.7740 C   0  0  0  0  0  0  0  0  0  0  0  0
   -4.5080    5.7620   11.8950 C   0  0  0  0  0  0  0  0  0  0  0  0
   -3.5660    5.9380   12.9170 C   0  0  0  0  0  0  0  0  0  0  0  0
   -2.3010    5.3520   12.8190 C   0  0  0  0  0  0  0  0  0  0  0  0
   -5.8390    6.3790   11.9990 C   0  0  0  0  0  0  0  0  0  0  0  0
   -6.5050    6.5650   13.1530 N   0  0  0  0  0  0  0  0  0  0  0  0
   -7.6410    7.1400   12.7970 N   0  0  0  0  0  0  0  0  0  0  0  0
   -7.6700    7.3000   11.4830 N   0  0  0  0  0  0  0  0  0  0  0  0
   -6.5530    6.8320   10.9510 N   0  0  0  0  0  0  0  0  0  0  0  0
    6.5283   -0.8894   17.2964 H   0  0  0  0  0  0  0  0  0  0  0  0
    2.1435   -1.8085   16.0922 H   0  0  0  0  0  0  0  0  0  0  0  0
    5.5832    2.0046   13.3406 H   0  0  0  0  0  0  0  0  0  0  0  0
    7.0863    0.9344   15.4080 H   0  0  0  0  0  0  0  0  0  0  0  0
    0.4160   -3.4347   15.6836 H   0  0  0  0  0  0  0  0  0  0  0  0
   -1.9108   -3.8629   14.9168 H   0  0  0  0  0  0  0  0  0  0  0  0
    0.3087    0.4748   13.8461 H   0  0  0  0  0  0  0  0  0  0  0  0
   -4.2250   -3.1256   15.1514 H   0  0  0  0  0  0  0  0  0  0  0  0
   -5.2986   -3.0191   13.7152 H   0  0  0  0  0  0  0  0  0  0  0  0
   -3.9087   -4.1571   13.7152 H   0  0  0  0  0  0  0  0  0  0  0  0
   -0.9857    1.7236   12.1286 H   0  0  0  0  0  0  0  0  0  0  0  0
   -1.0775    0.2008   11.1802 H   0  0  0  0  0  0  0  0  0  0  0  0
   -2.4632    1.3438   11.1802 H   0  0  0  0  0  0  0  0  0  0  0  0
    5.0983    1.7373   10.9718 H   0  0  0  0  0  0  0  0  0  0  0  0
    4.5650    3.1488    8.9872 H   0  0  0  0  0  0  0  0  0  0  0  0
    2.3744    4.3293    8.8431 H   0  0  0  0  0  0  0  0  0  0  0  0
    1.2402    2.6886   12.6812 H   0  0  0  0  0  0  0  0  0  0  0  0
   -0.4234    3.3039   12.3616 H   0  0  0  0  0  0  0  0  0  0  0  0
   -2.6476    3.8054    9.7935 H   0  0  0  0  0  0  0  0  0  0  0  0
   -4.9032    4.8514    9.9664 H   0  0  0  0  0  0  0  0  0  0  0  0
   -3.8233    6.5403   13.8008 H   0  0  0  0  0  0  0  0  0  0  0  0
   -1.5678    5.4955   13.6263 H   0  0  0  0  0  0  0  0  0  0  0  0
   -6.2881    6.8173    9.9558 H   0  0  0  0  0  0  0  0  0  0  0  0
  1  2  1  0
  1 10  2  0
  2  3  2  0
  3  4  1  0
  3  9  1  0
  4  5  1  0
  4  6  2  0
  5 11  1  0
  6  7  1  0
  7  8  2  0
  7 21  1  0
  8  9  1  0
  9 10  1  0
 11 12  2  0
 11 16  1  0
 12 13  1  0
 13 14  2  0
 14 15  1  0
 14 17  1  0
 15 16  2  0
 15 19  1  0
 17 18  1  0
 19 20  1  0
 21 22  2  0
 21 26  1  0
 22 23  1  0
 23 24  2  0
 24 25  1  0
 25 26  2  0
 25 27  1  0
 27 29  1  0
 27 28  2  0
 29 30  1  0
 30 35  1  0
 30 31  2  0
 31 32  1  0
 32 33  2  0
 33 36  1  0
 33 34  1  0
 34 35  2  0
 36 37  2  0
 36 40  1  0
 37 38  1  0
 38 39  2  0
 39 40  1  0
  1 41  1  0
  5 42  1  0
  8 43  1  0
 10 44  1  0
 12 45  1  0
 13 46  1  0
 16 47  1  0
 18 48  1  0
 18 49  1  0
 18 50  1  0
 20 51  1  0
 20 52  1  0
 20 53  1  0
 22 54  1  0
 23 55  1  0
 24 56  1  0
 26 57  1  0
 29 58  1  0
 31 59  1  0
 32 60  1  0
 34 61  1  0
 35 62  1  0
 40 63  1  0
M  END
>  <s_m_entry_id>  (28) 
28

>  <MODEL>  (28) 
1

>  <REMARK>  (28) 
 VINA RESULT:   -10.747      0.000      0.000
 INTER + INTRA:         -16.047
 INTER:                 -15.146
 INTRA:                  -0.902
 UNBOUND:                -0.902
  Name = /scratch/kmzp800/tmpms1n169d/tmpraqvy12p.pdb
  9 active torsions:
  status: ('A' for Active; 'I' for Inactive)
    1  A    between atoms: N2_5  and  C4_6
    2  A    between atoms: C7_9  and  O1_10
    3  A    between atoms: O1_10  and  C8_11
    4  A    between atoms: C9_12  and  O2_13
    5  A    between atoms: O2_13  and  C10_14
    6  A    between atoms: C12_17  and  C13_18
    7  A    between atoms: C17_22  and  C18_23
    8  A    between atoms: N4_25  and  C19_26
    9  A    between atoms: C22_29  and  C23_30
                            x       y       z     vdW  Elec       q    Type
                         _______ _______ _______ _____ _____    ______ ____

>  <TORSDO>  (28) 
F 7

>  <grid_id>  (28) 
syk-prepared

>  <grid_path>  (28) 
syk_vina.pdbqt

>  <grid_filename>  (28) 
syk_vina.pdbqt

>  <docking_score>  (28) 
-10.747

>  <compound_name>  (28) 
CHEMBL3265001

>  <index_string>  (28) 
27:0:0

>  <s_m_Source_Path>  (28) 
/projects/mai/users/kmzp800_harry/pmx_colab/docking_jobs/syk/vina_prep/output

>  <s_m_Source_File>  (28) 
ptp1b_docked_conformers.sdf

>  <i_m_Source_File_Index>  (28) 
28

$$$$
CHEMBL3264999
     RDKit          3D

 62 66  0  0  1  0  0  0  0  0999 V2000
    5.8760   -0.5150   16.3400 C   0  0  0  0  0  0  0  0  0  0  0  0
    4.5940   -0.9540   16.2500 N   0  0  0  0  0  0  0  0  0  0  0  0
    4.0860   -0.2380   15.2330 C   0  0  0  0  0  0  0  0  0  0  0  0
    2.7890   -0.3090   14.7310 C   0  0  0  0  0  0  0  0  0  0  0  0
    1.8320   -1.2140   15.3000 N   0  0  0  0  0  0  0  0  0  0  0  0
    2.4710    0.5110   13.6860 N   0  0  0  0  0  0  0  0  0  0  0  0
    3.3760    1.3800   13.1340 C   0  0  0  0  0  0  0  0  0  0  0  0
    4.6810    1.4310   13.6620 C   0  0  0  0  0  0  0  0  0  0  0  0
    4.9700    0.6080   14.6980 N   0  0  0  0  0  0  0  0  0  0  0  0
    6.1160    0.4590   15.3740 C   0  0  0  0  0  0  0  0  0  0  0  0
    0.4690   -1.3980   14.8910 C   0  0  0  0  0  0  0  0  0  0  0  0
   -0.2800   -2.5160   15.2760 C   0  0  0  0  0  0  0  0  0  0  0  0
   -1.6040   -2.6590   14.8570 C   0  0  0  0  0  0  0  0  0  0  0  0
   -2.2010   -1.6830   14.0440 C   0  0  0  0  0  0  0  0  0  0  0  0
   -1.4570   -0.5590   13.6530 C   0  0  0  0  0  0  0  0  0  0  0  0
   -0.1250   -0.4260   14.0800 C   0  0  0  0  0  0  0  0  0  0  0  0
   -3.5260   -1.8080   13.6140 O   0  0  0  0  0  0  0  0  0  0  0  0
   -4.0550   -3.0230   13.0980 C   0  0  0  0  0  0  0  0  0  0  0  0
   -2.0570    0.4100   12.8420 O   0  0  0  0  0  0  0  0  0  0  0  0
   -1.5130    0.8130   11.5930 C   0  0  0  0  0  0  0  0  0  0  0  0
    2.9740    2.2430   12.0040 C   0  0  0  0  0  0  0  0  0  0  0  0
    3.8740    2.5520   10.9720 C   0  0  0  0  0  0  0  0  0  0  0  0
    3.4790    3.3690    9.9110 C   0  0  0  0  0  0  0  0  0  0  0  0
    2.1810    3.8840    9.8710 C   0  0  0  0  0  0  0  0  0  0  0  0
    1.2690    3.5880   10.8910 C   0  0  0  0  0  0  0  0  0  0  0  0
    1.6730    2.7660   11.9530 C   0  0  0  0  0  0  0  0  0  0  0  0
   -0.1010    4.1300   10.8520 C   0  0  0  0  0  0  0  0  0  0  0  0
   -0.5330    4.6580    9.7910 O   0  0  0  0  0  0  0  0  0  0  0  0
   -0.9310    4.0540   12.0210 N   0  0  0  0  0  0  0  0  0  0  0  0
   -2.2770    4.5300   12.1520 C   0  0  0  0  0  0  0  0  0  0  0  0
   -3.3620    3.8620   11.5670 C   0  0  0  0  0  0  0  0  0  0  0  0
   -4.6610    4.3560   11.7170 C   0  0  0  0  0  0  0  0  0  0  0  0
   -4.8930    5.5270   12.4540 C   0  0  0  0  0  0  0  0  0  0  0  0
   -3.8070    6.1930   13.0370 C   0  0  0  0  0  0  0  0  0  0  0  0
   -2.5090    5.6970   12.8860 C   0  0  0  0  0  0  0  0  0  0  0  0
   -6.2610    6.0490   12.6130 C   0  0  0  0  0  0  0  0  0  0  0  0
   -6.5850    6.6790   13.6550 O   0  0  0  0  0  0  0  0  0  0  0  0
   -7.2340    5.8460   11.5920 N   0  0  0  0  0  0  0  0  0  0  0  0
    6.6164   -0.8759   17.0691 H   0  0  0  0  0  0  0  0  0  0  0  0
    2.1584   -1.7937   16.0863 H   0  0  0  0  0  0  0  0  0  0  0  0
    5.4374    2.1141   13.2481 H   0  0  0  0  0  0  0  0  0  0  0  0
    7.0590    0.9983   15.2009 H   0  0  0  0  0  0  0  0  0  0  0  0
    0.1777   -3.2872   15.9130 H   0  0  0  0  0  0  0  0  0  0  0  0
   -2.1828   -3.5419   15.1659 H   0  0  0  0  0  0  0  0  0  0  0  0
    0.4582    0.4544   13.7722 H   0  0  0  0  0  0  0  0  0  0  0  0
   -4.3416   -3.6813   13.9314 H   0  0  0  0  0  0  0  0  0  0  0  0
   -4.9398   -2.8052   12.4817 H   0  0  0  0  0  0  0  0  0  0  0  0
   -3.2928   -3.5223   12.4817 H   0  0  0  0  0  0  0  0  0  0  0  0
   -0.6400    1.4597   11.7649 H   0  0  0  0  0  0  0  0  0  0  0  0
   -1.2043   -0.0760   11.0235 H   0  0  0  0  0  0  0  0  0  0  0  0
   -2.2735    1.3673   11.0235 H   0  0  0  0  0  0  0  0  0  0  0  0
    4.8967    2.1480   10.9994 H   0  0  0  0  0  0  0  0  0  0  0  0
    4.1901    3.6073    9.1063 H   0  0  0  0  0  0  0  0  0  0  0  0
    1.8736    4.5263    9.0326 H   0  0  0  0  0  0  0  0  0  0  0  0
    0.9605    2.5281   12.7566 H   0  0  0  0  0  0  0  0  0  0  0  0
   -0.5158    3.6109   12.8530 H   0  0  0  0  0  0  0  0  0  0  0  0
   -3.1900    2.9436   10.9865 H   0  0  0  0  0  0  0  0  0  0  0  0
   -5.5056    3.8239   11.2549 H   0  0  0  0  0  0  0  0  0  0  0  0
   -3.9769    7.1120   13.6172 H   0  0  0  0  0  0  0  0  0  0  0  0
   -1.6640    6.2286   13.3480 H   0  0  0  0  0  0  0  0  0  0  0  0
   -8.1888    6.2139   11.7100 H   0  0  0  0  0  0  0  0  0  0  0  0
   -6.9825    5.3314   10.7360 H   0  0  0  0  0  0  0  0  0  0  0  0
  1  2  1  0
  1 10  2  0
  2  3  2  0
  3  4  1  0
  3  9  1  0
  4  5  1  0
  4  6  2  0
  5 11  1  0
  6  7  1  0
  7  8  2  0
  7 21  1  0
  8  9  1  0
  9 10  1  0
 11 12  2  0
 11 16  1  0
 12 13  1  0
 13 14  2  0
 14 15  1  0
 14 17  1  0
 15 16  2  0
 15 19  1  0
 17 18  1  0
 19 20  1  0
 21 22  2  0
 21 26  1  0
 22 23  1  0
 23 24  2  0
 24 25  1  0
 25 26  2  0
 25 27  1  0
 27 29  1  0
 27 28  2  0
 29 30  1  0
 30 35  1  0
 30 31  2  0
 31 32  1  0
 32 33  2  0
 33 36  1  0
 33 34  1  0
 34 35  2  0
 36 37  2  0
 36 38  1  0
  1 39  1  0
  5 40  1  0
  8 41  1  0
 10 42  1  0
 12 43  1  0
 13 44  1  0
 16 45  1  0
 18 46  1  0
 18 47  1  0
 18 48  1  0
 20 49  1  0
 20 50  1  0
 20 51  1  0
 22 52  1  0
 23 53  1  0
 24 54  1  0
 26 55  1  0
 29 56  1  0
 31 57  1  0
 32 58  1  0
 34 59  1  0
 35 60  1  0
 38 61  1  0
 38 62  1  0
M  END
>  <s_m_entry_id>  (29) 
29

>  <MODEL>  (29) 
1

>  <REMARK>  (29) 
 VINA RESULT:   -10.785      0.000      0.000
 INTER + INTRA:         -16.098
 INTER:                 -15.199
 INTRA:                  -0.898
 UNBOUND:                -0.898
  Name = /scratch/kmzp800/tmpvjv2o4v8/tmplsywba1y.pdb
  9 active torsions:
  status: ('A' for Active; 'I' for Inactive)
    1  A    between atoms: N2_5  and  C4_6
    2  A    between atoms: C7_9  and  O1_10
    3  A    between atoms: O1_10  and  C8_11
    4  A    between atoms: C9_12  and  O2_13
    5  A    between atoms: O2_13  and  C10_14
    6  A    between atoms: C12_17  and  C13_18
    7  A    between atoms: C17_22  and  C18_23
    8  A    between atoms: N4_25  and  C19_26
    9  A    between atoms: C22_29  and  C23_30
                            x       y       z     vdW  Elec       q    Type
                         _______ _______ _______ _____ _____    ______ ____

>  <TORSDO>  (29) 
F 7

>  <grid_id>  (29) 
syk-prepared

>  <grid_path>  (29) 
syk_vina.pdbqt

>  <grid_filename>  (29) 
syk_vina.pdbqt

>  <docking_score>  (29) 
-10.785

>  <compound_name>  (29) 
CHEMBL3264999

>  <index_string>  (29) 
28:0:0

>  <s_m_Source_Path>  (29) 
/projects/mai/users/kmzp800_harry/pmx_colab/docking_jobs/syk/vina_prep/output

>  <s_m_Source_File>  (29) 
ptp1b_docked_conformers.sdf

>  <i_m_Source_File_Index>  (29) 
29

$$$$
CHEMBL3265036
     RDKit          3D

 55 60  0  0  1  0  0  0  0  0999 V2000
    5.7800   -0.5800   16.2200 C   0  0  0  0  0  0  0  0  0  0  0  0
    4.5100   -1.0580   16.2130 N   0  0  0  0  0  0  0  0  0  0  0  0
    3.9110   -0.3500   15.2390 C   0  0  0  0  0  0  0  0  0  0  0  0
    2.5870   -0.4560   14.8240 C   0  0  0  0  0  0  0  0  0  0  0  0
    1.7010   -1.3970   15.4480 N   0  0  0  0  0  0  0  0  0  0  0  0
    2.1740    0.3600   13.8100 N   0  0  0  0  0  0  0  0  0  0  0  0
    3.0140    1.2610   13.2070 C   0  0  0  0  0  0  0  0  0  0  0  0
    4.3490    1.3480   13.6480 C   0  0  0  0  0  0  0  0  0  0  0  0
    4.7320    0.5260   14.6540 N   0  0  0  0  0  0  0  0  0  0  0  0
    5.9250    0.4090   15.2500 C   0  0  0  0  0  0  0  0  0  0  0  0
    2.5140    2.1200   12.1140 C   0  0  0  0  0  0  0  0  0  0  0  0
    3.4020    2.6370   11.1340 C   0  0  0  0  0  0  0  0  0  0  0  0
    2.9350    3.4560   10.0900 C   0  0  0  0  0  0  0  0  0  0  0  0
    1.5740    3.7350   10.0620 C   0  0  0  0  0  0  0  0  0  0  0  0
    0.8160    4.4850    9.1940 C   0  0  0  0  0  0  0  0  0  0  0  0
   -0.4650    4.4170    9.6380 N   0  0  0  0  0  0  0  0  0  0  0  0
   -0.5330    3.6640   10.7320 N   0  0  0  0  0  0  0  0  0  0  0  0
    0.7120    3.2440   10.9940 C   0  0  0  0  0  0  0  0  0  0  0  0
    1.1370    2.4320   12.0410 C   0  0  0  0  0  0  0  0  0  0  0  0
    0.3180   -1.6190   15.1360 C   0  0  0  0  0  0  0  0  0  0  0  0
   -0.4210   -0.7240   14.3510 C   0  0  0  0  0  0  0  0  0  0  0  0
   -1.7670   -0.9740   14.0700 C   0  0  0  0  0  0  0  0  0  0  0  0
   -2.3990   -2.1240   14.5690 C   0  0  0  0  0  0  0  0  0  0  0  0
   -1.6520   -3.0170   15.3560 C   0  0  0  0  0  0  0  0  0  0  0  0
   -0.3080   -2.7650   15.6370 C   0  0  0  0  0  0  0  0  0  0  0  0
   -3.7870   -2.3860   14.2770 N   0  0  0  0  0  0  0  0  0  0  0  0
   -4.7910   -2.3170   15.3440 C   0  0  0  0  0  0  0  0  0  0  0  0
   -5.8000   -3.4640   15.2570 C   0  0  0  0  0  0  0  0  0  0  0  0
   -5.1540   -4.6630   14.9300 O   0  0  0  0  0  0  0  0  0  0  0  0
   -5.3870   -4.8390   13.5590 C   0  0  0  0  0  0  0  0  0  0  0  0
   -4.2540   -4.2290   12.7360 C   0  0  0  0  0  0  0  0  0  0  0  0
   -4.2080   -2.7150   12.9150 C   0  0  0  0  0  0  0  0  0  0  0  0
    6.5788   -0.9236   16.8937 H   0  0  0  0  0  0  0  0  0  0  0  0
    2.1008   -1.9752   16.2008 H   0  0  0  0  0  0  0  0  0  0  0  0
    5.0548    2.0578   13.1919 H   0  0  0  0  0  0  0  0  0  0  0  0
    6.8369    0.9795   15.0198 H   0  0  0  0  0  0  0  0  0  0  0  0
    4.4730    2.3930   11.1922 H   0  0  0  0  0  0  0  0  0  0  0  0
    3.6184    3.8586    9.3279 H   0  0  0  0  0  0  0  0  0  0  0  0
    1.1773    5.0334    8.3115 H   0  0  0  0  0  0  0  0  0  0  0  0
   -1.3809    3.4454   11.2744 H   0  0  0  0  0  0  0  0  0  0  0  0
    0.4260    2.0461   12.7863 H   0  0  0  0  0  0  0  0  0  0  0  0
    0.0613    0.1811   13.9534 H   0  0  0  0  0  0  0  0  0  0  0  0
   -2.3362   -0.2635   13.4525 H   0  0  0  0  0  0  0  0  0  0  0  0
   -2.1310   -3.9235   15.7545 H   0  0  0  0  0  0  0  0  0  0  0  0
    0.2625   -3.4725   16.2566 H   0  0  0  0  0  0  0  0  0  0  0  0
   -4.2796   -2.3670   16.3166 H   0  0  0  0  0  0  0  0  0  0  0  0
   -5.3414   -1.3712   15.2319 H   0  0  0  0  0  0  0  0  0  0  0  0
   -6.3034   -3.5775   16.2284 H   0  0  0  0  0  0  0  0  0  0  0  0
   -6.5357   -3.2314   14.4730 H   0  0  0  0  0  0  0  0  0  0  0  0
   -5.4541   -5.9148   13.3393 H   0  0  0  0  0  0  0  0  0  0  0  0
   -6.3281   -4.3356   13.2928 H   0  0  0  0  0  0  0  0  0  0  0  0
   -3.2970   -4.6601   13.0649 H   0  0  0  0  0  0  0  0  0  0  0  0
   -4.4302   -4.4529   11.6736 H   0  0  0  0  0  0  0  0  0  0  0  0
   -5.2082   -2.2957   12.7313 H   0  0  0  0  0  0  0  0  0  0  0  0
   -3.4883   -2.2881   12.2010 H   0  0  0  0  0  0  0  0  0  0  0  0
  1  2  1  0
  1 10  2  0
  2  3  2  0
  3  4  1  0
  3  9  1  0
  4  5  1  0
  4  6  2  0
  5 20  1  0
  6  7  1  0
  7  8  2  0
  7 11  1  0
  8  9  1  0
  9 10  1  0
 11 12  2  0
 11 19  1  0
 12 13  1  0
 13 14  2  0
 14 18  1  0
 14 15  1  0
 15 16  2  0
 16 17  1  0
 17 18  1  0
 18 19  2  0
 20 25  1  0
 20 21  2  0
 21 22  1  0
 22 23  2  0
 23 24  1  0
 23 26  1  0
 24 25  2  0
 26 27  1  0
 26 32  1  0
 27 28  1  0
 28 29  1  0
 29 30  1  0
 30 31  1  0
 31 32  1  0
  1 33  1  0
  5 34  1  0
  8 35  1  0
 10 36  1  0
 12 37  1  0
 13 38  1  0
 15 39  1  0
 17 40  1  0
 19 41  1  0
 21 42  1  0
 22 43  1  0
 24 44  1  0
 25 45  1  0
 27 46  1  0
 27 47  1  0
 28 48  1  0
 28 49  1  0
 30 50  1  0
 30 51  1  0
 31 52  1  0
 31 53  1  0
 32 54  1  0
 32 55  1  0
M  END
>  <s_m_entry_id>  (30) 
30

>  <MODEL>  (30) 
1

>  <REMARK>  (30) 
 VINA RESULT:    -9.745      0.000      0.000
 INTER + INTRA:         -11.901
 INTER:                 -11.454
 INTRA:                  -0.446
 UNBOUND:                -0.446
  Name = /scratch/kmzp800/tmpe2tg37q0/tmpsqnz7o3z.pdb
  3 active torsions:
  status: ('A' for Active; 'I' for Inactive)
    1  A    between atoms: N2_5  and  C4_6
    2  A    between atoms: C7_9  and  N3_10
    3  A    between atoms: C15_20  and  C16_21
                            x       y       z     vdW  Elec       q    Type
                         _______ _______ _______ _____ _____    ______ ____

>  <TORSDO>  (30) 
F 3

>  <grid_id>  (30) 
syk-prepared

>  <grid_path>  (30) 
syk_vina.pdbqt

>  <grid_filename>  (30) 
syk_vina.pdbqt

>  <docking_score>  (30) 
-9.745

>  <compound_name>  (30) 
CHEMBL3265036

>  <index_string>  (30) 
29:0:0

>  <s_m_Source_Path>  (30) 
/projects/mai/users/kmzp800_harry/pmx_colab/docking_jobs/syk/vina_prep/output

>  <s_m_Source_File>  (30) 
ptp1b_docked_conformers.sdf

>  <i_m_Source_File_Index>  (30) 
30

$$$$
CHEMBL3265017
     RDKit          3D

 47 51  0  0  1  0  0  0  0  0999 V2000
    6.2120    0.2540   15.7990 C   0  0  0  0  0  0  0  0  0  0  0  0
    5.7540    1.0080   14.7680 N   0  0  0  0  0  0  0  0  0  0  0  0
    4.4910    0.5780   14.6000 C   0  0  0  0  0  0  0  0  0  0  0  0
    3.5730    1.0350   13.6570 C   0  0  0  0  0  0  0  0  0  0  0  0
    3.9340    2.0700   12.7320 N   0  0  0  0  0  0  0  0  0  0  0  0
    2.3320    0.4620   13.6540 N   0  0  0  0  0  0  0  0  0  0  0  0
    1.9800   -0.5270   14.5340 C   0  0  0  0  0  0  0  0  0  0  0  0
    2.9280   -0.9690   15.4760 C   0  0  0  0  0  0  0  0  0  0  0  0
    4.1500   -0.3860   15.4600 N   0  0  0  0  0  0  0  0  0  0  0  0
    5.2160   -0.6180   16.2350 C   0  0  0  0  0  0  0  0  0  0  0  0
    0.6240   -1.1110   14.4850 C   0  0  0  0  0  0  0  0  0  0  0  0
    0.3030   -2.2190   15.3120 C   0  0  0  0  0  0  0  0  0  0  0  0
   -0.9800   -2.7970   15.2870 C   0  0  0  0  0  0  0  0  0  0  0  0
   -1.9120   -2.2380   14.4210 C   0  0  0  0  0  0  0  0  0  0  0  0
   -3.2240   -2.5610   14.1640 C   0  0  0  0  0  0  0  0  0  0  0  0
   -3.6620   -1.6830   13.2240 N   0  0  0  0  0  0  0  0  0  0  0  0
   -2.6890   -0.8400   12.8930 N   0  0  0  0  0  0  0  0  0  0  0  0
   -1.6180   -1.1760   13.6230 C   0  0  0  0  0  0  0  0  0  0  0  0
   -0.3600   -0.5790   13.6200 C   0  0  0  0  0  0  0  0  0  0  0  0
    3.1060    2.6430   11.7090 C   0  0  0  0  0  0  0  0  0  0  0  0
    3.6190    3.0240   10.4620 C   0  0  0  0  0  0  0  0  0  0  0  0
    2.7810    3.5780    9.4940 C   0  0  0  0  0  0  0  0  0  0  0  0
    1.4140    3.7610    9.7570 C   0  0  0  0  0  0  0  0  0  0  0  0
    0.8920    3.3810   11.0030 C   0  0  0  0  0  0  0  0  0  0  0  0
    1.7450    2.8240   11.9710 C   0  0  0  0  0  0  0  0  0  0  0  0
    0.5570    4.3140    8.7980 O   0  0  0  0  0  0  0  0  0  0  0  0
    0.2570    5.7030    8.7460 C   0  0  0  0  0  0  0  0  0  0  0  0
   -0.4710    3.5650   11.2590 O   0  0  0  0  0  0  0  0  0  0  0  0
   -1.2120    2.7200   12.1290 C   0  0  0  0  0  0  0  0  0  0  0  0
    7.2225    0.3212   16.2283 H   0  0  0  0  0  0  0  0  0  0  0  0
    4.8911    2.4425   12.8103 H   0  0  0  0  0  0  0  0  0  0  0  0
    2.6845   -1.7605   16.2000 H   0  0  0  0  0  0  0  0  0  0  0  0
    5.2911   -1.3502   17.0524 H   0  0  0  0  0  0  0  0  0  0  0  0
    1.0697   -2.6328   15.9836 H   0  0  0  0  0  0  0  0  0  0  0  0
   -1.2344   -3.6553   15.9262 H   0  0  0  0  0  0  0  0  0  0  0  0
   -3.8050   -3.3714   14.6285 H   0  0  0  0  0  0  0  0  0  0  0  0
   -2.7477   -0.0746   12.2062 H   0  0  0  0  0  0  0  0  0  0  0  0
   -0.1391    0.2779   12.9666 H   0  0  0  0  0  0  0  0  0  0  0  0
    4.6885    2.8855   10.2451 H   0  0  0  0  0  0  0  0  0  0  0  0
    3.1940    3.8734    8.5182 H   0  0  0  0  0  0  0  0  0  0  0  0
    1.3362    2.5265   12.9479 H   0  0  0  0  0  0  0  0  0  0  0  0
    0.1716    6.0982    9.7690 H   0  0  0  0  0  0  0  0  0  0  0  0
    1.0615    6.2322    8.2144 H   0  0  0  0  0  0  0  0  0  0  0  0
   -0.6943    5.8530    8.2144 H   0  0  0  0  0  0  0  0  0  0  0  0
   -0.9846    2.9793   13.1735 H   0  0  0  0  0  0  0  0  0  0  0  0
   -2.2877    2.8555   11.9434 H   0  0  0  0  0  0  0  0  0  0  0  0
   -0.9372    1.6712   11.9434 H   0  0  0  0  0  0  0  0  0  0  0  0
  1 10  2  0
  1  2  1  0
  2  3  2  0
  3  9  1  0
  3  4  1  0
  4  5  1  0
  4  6  2  0
  5 20  1  0
  6  7  1  0
  7  8  2  0
  7 11  1  0
  8  9  1  0
  9 10  1  0
 11 12  2  0
 11 19  1  0
 12 13  1  0
 13 14  2  0
 14 15  1  0
 14 18  1  0
 15 16  2  0
 16 17  1  0
 17 18  1  0
 18 19  2  0
 20 25  1  0
 20 21  2  0
 21 22  1  0
 22 23  2  0
 23 24  1  0
 23 26  1  0
 24 28  1  0
 24 25  2  0
 26 27  1  0
 28 29  1  0
  1 30  1  0
  5 31  1  0
  8 32  1  0
 10 33  1  0
 12 34  1  0
 13 35  1  0
 15 36  1  0
 17 37  1  0
 19 38  1  0
 21 39  1  0
 22 40  1  0
 25 41  1  0
 27 42  1  0
 27 43  1  0
 27 44  1  0
 29 45  1  0
 29 46  1  0
 29 47  1  0
M  END
>  <s_m_entry_id>  (31) 
31

>  <MODEL>  (31) 
1

>  <REMARK>  (31) 
 VINA RESULT:    -9.318      0.000      0.000
 INTER + INTRA:         -12.000
 INTER:                 -11.496
 INTRA:                  -0.504
 UNBOUND:                -0.504
  Name = /scratch/kmzp800/tmpf1rwi9mn/tmpulgp4q_0.pdb
  6 active torsions:
  status: ('A' for Active; 'I' for Inactive)
    1  A    between atoms: N2_5  and  C4_6
    2  A    between atoms: C7_9  and  O1_10
    3  A    between atoms: O1_10  and  C8_11
    4  A    between atoms: C9_12  and  O2_13
    5  A    between atoms: O2_13  and  C10_14
    6  A    between atoms: C12_17  and  C13_18
                            x       y       z     vdW  Elec       q    Type
                         _______ _______ _______ _____ _____    ______ ____

>  <TORSDO>  (31) 
F 4

>  <grid_id>  (31) 
syk-prepared

>  <grid_path>  (31) 
syk_vina.pdbqt

>  <grid_filename>  (31) 
syk_vina.pdbqt

>  <docking_score>  (31) 
-9.318

>  <compound_name>  (31) 
CHEMBL3265017

>  <index_string>  (31) 
30:0:0

>  <s_m_Source_Path>  (31) 
/projects/mai/users/kmzp800_harry/pmx_colab/docking_jobs/syk/vina_prep/output

>  <s_m_Source_File>  (31) 
ptp1b_docked_conformers.sdf

>  <i_m_Source_File_Index>  (31) 
31

$$$$
CHEMBL3265009
     RDKit          3D

 51 54  0  0  1  0  0  0  0  0999 V2000
    5.6030   -0.5930   16.2990 C   0  0  0  0  0  0  0  0  0  0  0  0
    4.3310   -1.0590   16.2120 N   0  0  0  0  0  0  0  0  0  0  0  0
    3.7940   -0.3290   15.2200 C   0  0  0  0  0  0  0  0  0  0  0  0
    2.4940   -0.4150   14.7290 C   0  0  0  0  0  0  0  0  0  0  0  0
    1.5660   -1.3570   15.2860 N   0  0  0  0  0  0  0  0  0  0  0  0
    2.1450    0.4240   13.7100 N   0  0  0  0  0  0  0  0  0  0  0  0
    3.0250    1.3280   13.1720 C   0  0  0  0  0  0  0  0  0  0  0  0
    4.3330    1.3940   13.6870 C   0  0  0  0  0  0  0  0  0  0  0  0
    4.6530    0.5510   14.6970 N   0  0  0  0  0  0  0  0  0  0  0  0
    5.8100    0.4110   15.3560 C   0  0  0  0  0  0  0  0  0  0  0  0
    2.5930    2.2130   12.0700 C   0  0  0  0  0  0  0  0  0  0  0  0
    3.5200    2.6580   11.1220 C   0  0  0  0  0  0  0  0  0  0  0  0
    3.1190    3.4940   10.0800 C   0  0  0  0  0  0  0  0  0  0  0  0
    1.7870    3.8990    9.9640 C   0  0  0  0  0  0  0  0  0  0  0  0
    1.4410    4.7920    8.8200 C   0  0  0  0  0  0  0  0  0  0  0  0
    0.8300    3.4580   10.9140 C   0  0  0  0  0  0  0  0  0  0  0  0
    1.2560    2.6190   11.9550 C   0  0  0  0  0  0  0  0  0  0  0  0
   -0.6050    3.8390   10.8690 C   0  0  0  0  0  0  0  0  0  0  0  0
   -1.3430    3.4970    9.9080 O   0  0  0  0  0  0  0  0  0  0  0  0
   -1.1730    4.6050   11.9280 N   0  0  0  0  0  0  0  0  0  0  0  0
    0.2030   -1.5650   14.8930 C   0  0  0  0  0  0  0  0  0  0  0  0
   -0.4580   -2.7800   15.1140 C   0  0  0  0  0  0  0  0  0  0  0  0
   -1.7860   -2.9430   14.7170 C   0  0  0  0  0  0  0  0  0  0  0  0
   -2.4750   -1.8930   14.0900 C   0  0  0  0  0  0  0  0  0  0  0  0
   -1.8200   -0.6730   13.8640 C   0  0  0  0  0  0  0  0  0  0  0  0
   -0.4830   -0.5190   14.2690 C   0  0  0  0  0  0  0  0  0  0  0  0
   -3.8070   -2.0380   13.6840 O   0  0  0  0  0  0  0  0  0  0  0  0
   -4.2400   -3.0890   12.8300 C   0  0  0  0  0  0  0  0  0  0  0  0
   -2.5120    0.3700   13.2380 O   0  0  0  0  0  0  0  0  0  0  0  0
   -2.0700    0.9710   12.0290 C   0  0  0  0  0  0  0  0  0  0  0  0
    6.3598   -0.9554   17.0103 H   0  0  0  0  0  0  0  0  0  0  0  0
    1.9176   -1.9487   16.0523 H   0  0  0  0  0  0  0  0  0  0  0  0
    5.0690    2.1050   13.2835 H   0  0  0  0  0  0  0  0  0  0  0  0
    6.7385    0.9760   15.1866 H   0  0  0  0  0  0  0  0  0  0  0  0
    4.5722    2.3466   11.1987 H   0  0  0  0  0  0  0  0  0  0  0  0
    3.8589    3.8378    9.3422 H   0  0  0  0  0  0  0  0  0  0  0  0
    1.0687    5.7530    9.2046 H   0  0  0  0  0  0  0  0  0  0  0  0
    2.3371    4.9652    8.2060 H   0  0  0  0  0  0  0  0  0  0  0  0
    0.6621    4.3162    8.2060 H   0  0  0  0  0  0  0  0  0  0  0  0
    0.5235    2.2716   12.6985 H   0  0  0  0  0  0  0  0  0  0  0  0
   -2.1681    4.8690   11.8964 H   0  0  0  0  0  0  0  0  0  0  0  0
   -0.5884    4.8947   12.7250 H   0  0  0  0  0  0  0  0  0  0  0  0
    0.0725   -3.6102   15.6031 H   0  0  0  0  0  0  0  0  0  0  0  0
   -2.2962   -3.9008   14.8967 H   0  0  0  0  0  0  0  0  0  0  0  0
    0.0306    0.4376   14.0926 H   0  0  0  0  0  0  0  0  0  0  0  0
   -4.5890   -3.9360   13.4389 H   0  0  0  0  0  0  0  0  0  0  0  0
   -5.0635   -2.7299   12.1952 H   0  0  0  0  0  0  0  0  0  0  0  0
   -3.4026   -3.4142   12.1952 H   0  0  0  0  0  0  0  0  0  0  0  0
   -1.4330    1.8371   12.2616 H   0  0  0  0  0  0  0  0  0  0  0  0
   -1.4938    0.2385   11.4447 H   0  0  0  0  0  0  0  0  0  0  0  0
   -2.9409    1.3027   11.4447 H   0  0  0  0  0  0  0  0  0  0  0  0
  1  2  1  0
  1 10  2  0
  2  3  2  0
  3  4  1  0
  3  9  1  0
  4  5  1  0
  4  6  2  0
  5 21  1  0
  6  7  1  0
  7  8  2  0
  7 11  1  0
  8  9  1  0
  9 10  1  0
 11 12  2  0
 11 17  1  0
 12 13  1  0
 13 14  2  0
 14 16  1  0
 14 15  1  0
 16 17  2  0
 16 18  1  0
 18 20  1  0
 18 19  2  0
 21 22  2  0
 21 26  1  0
 22 23  1  0
 23 24  2  0
 24 25  1  0
 24 27  1  0
 25 26  2  0
 25 29  1  0
 27 28  1  0
 29 30  1  0
  1 31  1  0
  5 32  1  0
  8 33  1  0
 10 34  1  0
 12 35  1  0
 13 36  1  0
 15 37  1  0
 15 38  1  0
 15 39  1  0
 17 40  1  0
 20 41  1  0
 20 42  1  0
 22 43  1  0
 23 44  1  0
 26 45  1  0
 28 46  1  0
 28 47  1  0
 28 48  1  0
 30 49  1  0
 30 50  1  0
 30 51  1  0
M  END
>  <s_m_entry_id>  (32) 
32

>  <MODEL>  (32) 
1

>  <REMARK>  (32) 
 VINA RESULT:    -9.193      0.000      0.000
 INTER + INTRA:         -12.229
 INTER:                 -11.880
 INTRA:                  -0.348
 UNBOUND:                -0.348
  Name = /scratch/kmzp800/tmppbhr_mcs/tmpcbv6yqfn.pdb
  8 active torsions:
  status: ('A' for Active; 'I' for Inactive)
    1  A    between atoms: N2_5  and  C4_6
    2  A    between atoms: C7_9  and  O1_10
    3  A    between atoms: O1_10  and  C8_11
    4  A    between atoms: C9_12  and  O2_13
    5  A    between atoms: O2_13  and  C10_14
    6  A    between atoms: C12_17  and  C13_18
    7  A    between atoms: C16_21  and  C17_22
    8  A    between atoms: C18_23  and  C19_24
                            x       y       z     vdW  Elec       q    Type
                         _______ _______ _______ _____ _____    ______ ____

>  <TORSDO>  (32) 
F 5

>  <grid_id>  (32) 
syk-prepared

>  <grid_path>  (32) 
syk_vina.pdbqt

>  <grid_filename>  (32) 
syk_vina.pdbqt

>  <docking_score>  (32) 
-9.193

>  <compound_name>  (32) 
CHEMBL3265009

>  <index_string>  (32) 
31:0:0

>  <s_m_Source_Path>  (32) 
/projects/mai/users/kmzp800_harry/pmx_colab/docking_jobs/syk/vina_prep/output

>  <s_m_Source_File>  (32) 
ptp1b_docked_conformers.sdf

>  <i_m_Source_File_Index>  (32) 
32

$$$$
CHEMBL3265029
     RDKit          3D

 43 47  0  0  1  0  0  0  0  0999 V2000
    6.2080    0.1350   15.8580 C   0  0  0  0  0  0  0  0  0  0  0  0
    5.8030    0.8990   14.8110 N   0  0  0  0  0  0  0  0  0  0  0  0
    4.5270    0.5230   14.6210 C   0  0  0  0  0  0  0  0  0  0  0  0
    3.6490    1.0090   13.6570 C   0  0  0  0  0  0  0  0  0  0  0  0
    4.0710    2.0200   12.7290 N   0  0  0  0  0  0  0  0  0  0  0  0
    2.3850    0.4910   13.6320 N   0  0  0  0  0  0  0  0  0  0  0  0
    1.9720   -0.4740   14.5130 C   0  0  0  0  0  0  0  0  0  0  0  0
    2.8820   -0.9490   15.4780 C   0  0  0  0  0  0  0  0  0  0  0  0
    4.1280   -0.4180   15.4810 N   0  0  0  0  0  0  0  0  0  0  0  0
    5.1680   -0.6890   16.2800 C   0  0  0  0  0  0  0  0  0  0  0  0
    0.5940   -1.0000   14.4410 C   0  0  0  0  0  0  0  0  0  0  0  0
   -0.3610   -0.4110   13.5710 C   0  0  0  0  0  0  0  0  0  0  0  0
   -1.6770   -0.9040   13.4950 C   0  0  0  0  0  0  0  0  0  0  0  0
   -1.9970   -1.9880   14.3050 C   0  0  0  0  0  0  0  0  0  0  0  0
   -3.1670   -2.6930   14.4640 C   0  0  0  0  0  0  0  0  0  0  0  0
   -2.9180   -3.6560   15.3870 N   0  0  0  0  0  0  0  0  0  0  0  0
   -1.6560   -3.5800   15.8030 N   0  0  0  0  0  0  0  0  0  0  0  0
   -1.0900   -2.5620   15.1420 C   0  0  0  0  0  0  0  0  0  0  0  0
    0.2190   -2.1000   15.2440 C   0  0  0  0  0  0  0  0  0  0  0  0
    3.2890    2.6180   11.6870 C   0  0  0  0  0  0  0  0  0  0  0  0
    3.8550    3.0200   10.4680 C   0  0  0  0  0  0  0  0  0  0  0  0
    3.0610    3.6010    9.4760 C   0  0  0  0  0  0  0  0  0  0  0  0
    1.6860    3.7870    9.6910 C   0  0  0  0  0  0  0  0  0  0  0  0
    1.1220    3.3860   10.9070 C   0  0  0  0  0  0  0  0  0  0  0  0
    1.9190    2.8060   11.8970 C   0  0  0  0  0  0  0  0  0  0  0  0
    0.8630    4.3650    8.7210 O   0  0  0  0  0  0  0  0  0  0  0  0
   -0.1290    5.3320    9.0320 C   0  0  0  0  0  0  0  0  0  0  0  0
    7.2116    0.1630   16.3074 H   0  0  0  0  0  0  0  0  0  0  0  0
    5.0416    2.3518   12.8221 H   0  0  0  0  0  0  0  0  0  0  0  0
    2.5910   -1.7234   16.2030 H   0  0  0  0  0  0  0  0  0  0  0  0
    5.1952   -1.4167   17.1044 H   0  0  0  0  0  0  0  0  0  0  0  0
   -0.0673    0.4451   12.9458 H   0  0  0  0  0  0  0  0  0  0  0  0
   -2.4210   -0.4510   12.8232 H   0  0  0  0  0  0  0  0  0  0  0  0
   -4.1193   -2.5116   13.9442 H   0  0  0  0  0  0  0  0  0  0  0  0
   -1.2018   -4.1876   16.4997 H   0  0  0  0  0  0  0  0  0  0  0  0
    0.9378   -2.5758   15.9274 H   0  0  0  0  0  0  0  0  0  0  0  0
    4.9313    2.8768   10.2919 H   0  0  0  0  0  0  0  0  0  0  0  0
    3.5144    3.9136    8.5238 H   0  0  0  0  0  0  0  0  0  0  0  0
    0.0457    3.5281   11.0844 H   0  0  0  0  0  0  0  0  0  0  0  0
    1.4654    2.4946   12.8495 H   0  0  0  0  0  0  0  0  0  0  0  0
   -0.2225    5.4232   10.1242 H   0  0  0  0  0  0  0  0  0  0  0  0
    0.1604    6.3041    8.6064 H   0  0  0  0  0  0  0  0  0  0  0  0
   -1.0934    5.0179    8.6064 H   0  0  0  0  0  0  0  0  0  0  0  0
  1 10  2  0
  1  2  1  0
  2  3  2  0
  3  9  1  0
  3  4  1  0
  4  5  1  0
  4  6  2  0
  5 20  1  0
  6  7  1  0
  7  8  2  0
  7 11  1  0
  8  9  1  0
  9 10  1  0
 11 19  1  0
 11 12  2  0
 12 13  1  0
 13 14  2  0
 14 15  1  0
 14 18  1  0
 15 16  2  0
 16 17  1  0
 17 18  1  0
 18 19  2  0
 20 25  1  0
 20 21  2  0
 21 22  1  0
 22 23  2  0
 23 24  1  0
 23 26  1  0
 24 25  2  0
 26 27  1  0
  1 28  1  0
  5 29  1  0
  8 30  1  0
 10 31  1  0
 12 32  1  0
 13 33  1  0
 15 34  1  0
 17 35  1  0
 19 36  1  0
 21 37  1  0
 22 38  1  0
 24 39  1  0
 25 40  1  0
 27 41  1  0
 27 42  1  0
 27 43  1  0
M  END
>  <s_m_entry_id>  (33) 
33

>  <MODEL>  (33) 
1

>  <REMARK>  (33) 
 VINA RESULT:    -9.329      0.000      0.000
 INTER + INTRA:         -11.194
 INTER:                 -10.965
 INTRA:                  -0.229
 UNBOUND:                -0.229
  Name = /scratch/kmzp800/tmpxxy0vkpu/tmpe2bpgb8v.pdb
  4 active torsions:
  status: ('A' for Active; 'I' for Inactive)
    1  A    between atoms: N2_5  and  C4_6
    2  A    between atoms: C7_9  and  O1_10
    3  A    between atoms: O1_10  and  C8_11
    4  A    between atoms: C11_15  and  C12_16
                            x       y       z     vdW  Elec       q    Type
                         _______ _______ _______ _____ _____    ______ ____

>  <TORSDO>  (33) 
F 3

>  <grid_id>  (33) 
syk-prepared

>  <grid_path>  (33) 
syk_vina.pdbqt

>  <grid_filename>  (33) 
syk_vina.pdbqt

>  <docking_score>  (33) 
-9.329

>  <compound_name>  (33) 
CHEMBL3265029

>  <index_string>  (33) 
32:0:0

>  <s_m_Source_Path>  (33) 
/projects/mai/users/kmzp800_harry/pmx_colab/docking_jobs/syk/vina_prep/output

>  <s_m_Source_File>  (33) 
ptp1b_docked_conformers.sdf

>  <i_m_Source_File_Index>  (33) 
33

$$$$
CHEMBL3265030_n
     RDKit          3D

 52 57  0  0  1  0  0  0  0  0999 V2000
    1.8120   -1.4400   15.3980 N   0  0  0  0  0  0  0  0  0  0  0  0
    2.6860   -0.4610   14.8180 C   0  0  0  0  0  0  0  0  0  0  0  0
    2.2900    0.3350   13.7810 N   0  0  0  0  0  0  0  0  0  0  0  0
    3.1170    1.2730   13.2190 C   0  0  0  0  0  0  0  0  0  0  0  0
    4.4220    1.4200   13.7270 C   0  0  0  0  0  0  0  0  0  0  0  0
    4.7890    0.6190   14.7540 N   0  0  0  0  0  0  0  0  0  0  0  0
    5.9550    0.5560   15.4120 C   0  0  0  0  0  0  0  0  0  0  0  0
    5.8050   -0.4370   16.3770 C   0  0  0  0  0  0  0  0  0  0  0  0
    4.5590   -0.9720   16.3060 N   0  0  0  0  0  0  0  0  0  0  0  0
    3.9810   -0.2930   15.3000 C   0  0  0  0  0  0  0  0  0  0  0  0
    2.6360    2.1080   12.0990 C   0  0  0  0  0  0  0  0  0  0  0  0
    3.5460    2.6420   11.1500 C   0  0  0  0  0  0  0  0  0  0  0  0
    3.0970    3.4390   10.0800 C   0  0  0  0  0  0  0  0  0  0  0  0
    1.7300    3.6760    9.9960 C   0  0  0  0  0  0  0  0  0  0  0  0
    0.9850    4.3960    9.0910 C   0  0  0  0  0  0  0  0  0  0  0  0
   -0.3110    4.2940    9.4860 N   0  0  0  0  0  0  0  0  0  0  0  0
   -0.3990    3.5500   10.5850 N   0  0  0  0  0  0  0  0  0  0  0  0
    0.8470    3.1690   10.8990 C   0  0  0  0  0  0  0  0  0  0  0  0
    1.2540    2.3790   11.9690 C   0  0  0  0  0  0  0  0  0  0  0  0
   -2.1800   -2.3650   14.3030 C   0  0  0  0  0  0  0  0  0  0  0  0
   -1.6080   -1.1660   13.8690 C   0  0  0  0  0  0  0  0  0  0  0  0
   -0.2940   -0.8490   14.2220 C   0  0  0  0  0  0  0  0  0  0  0  0
    0.4610   -1.7290   15.0140 C   0  0  0  0  0  0  0  0  0  0  0  0
   -0.1190   -2.9270   15.4450 C   0  0  0  0  0  0  0  0  0  0  0  0
   -1.4340   -3.2450   15.0930 C   0  0  0  0  0  0  0  0  0  0  0  0
   -5.5810   -3.1900   13.3900 C   0  0  0  0  0  0  0  0  0  0  0  0
   -6.1530   -4.5910   13.4370 C   0  0  0  0  0  0  0  0  0  0  0  0
   -4.8340   -2.7900   14.6050 C   0  0  0  0  0  0  0  0  0  0  0  0
   -3.5220   -2.6900   13.9430 N   0  0  0  0  0  0  0  0  0  0  0  0
   -4.2570   -3.0890   12.7310 C   0  0  0  0  0  0  0  0  0  0  0  0
   -6.4790   -2.2140   12.9580 O   0  0  0  0  0  0  0  0  0  0  0  0
    2.1970   -1.9958   16.1750 H   0  0  0  0  0  0  0  0  0  0  0  0
    5.1181    2.1594   13.3042 H   0  0  0  0  0  0  0  0  0  0  0  0
    6.8511    1.1665   15.2269 H   0  0  0  0  0  0  0  0  0  0  0  0
    6.5825   -0.7432   17.0923 H   0  0  0  0  0  0  0  0  0  0  0  0
    4.6204    2.4295   11.2522 H   0  0  0  0  0  0  0  0  0  0  0  0
    3.7979    3.8563    9.3421 H   0  0  0  0  0  0  0  0  0  0  0  0
    1.3645    4.9469    8.2178 H   0  0  0  0  0  0  0  0  0  0  0  0
   -1.2604    3.3120   11.0971 H   0  0  0  0  0  0  0  0  0  0  0  0
    0.5257    1.9786   12.6896 H   0  0  0  0  0  0  0  0  0  0  0  0
   -2.1931   -0.4711   13.2487 H   0  0  0  0  0  0  0  0  0  0  0  0
    0.1519    0.0957   13.8774 H   0  0  0  0  0  0  0  0  0  0  0  0
    0.4639   -3.6237   16.0653 H   0  0  0  0  0  0  0  0  0  0  0  0
   -1.8823   -4.1885   15.4379 H   0  0  0  0  0  0  0  0  0  0  0  0
   -6.2794   -4.9005   14.4850 H   0  0  0  0  0  0  0  0  0  0  0  0
   -7.1291   -4.6057   12.9301 H   0  0  0  0  0  0  0  0  0  0  0  0
   -5.4661   -5.2847   12.9301 H   0  0  0  0  0  0  0  0  0  0  0  0
   -5.1766   -1.8304   15.0195 H   0  0  0  0  0  0  0  0  0  0  0  0
   -4.9077   -3.4489   15.4828 H   0  0  0  0  0  0  0  0  0  0  0  0
   -3.9113   -4.0487   12.3192 H   0  0  0  0  0  0  0  0  0  0  0  0
   -4.1786   -2.4309   11.8531 H   0  0  0  0  0  0  0  0  0  0  0  0
   -6.8872   -1.7704   13.7433 H   0  0  0  0  0  0  0  0  0  0  0  0
  1  2  1  0
  1 23  1  0
  2 10  1  0
  2  3  2  0
  3  4  1  0
  4  5  2  0
  4 11  1  0
  5  6  1  0
  6 10  1  0
  6  7  1  0
  7  8  2  0
  8  9  1  0
  9 10  2  0
 11 12  2  0
 11 19  1  0
 12 13  1  0
 13 14  2  0
 14 18  1  0
 14 15  1  0
 15 16  2  0
 16 17  1  0
 17 18  1  0
 18 19  2  0
 20 25  1  0
 20 21  2  0
 20 29  1  0
 21 22  1  0
 22 23  2  0
 23 24  1  0
 24 25  2  0
 26 27  1  0
 26 28  1  0
 26 30  1  0
 26 31  1  0
 28 29  1  0
 29 30  1  0
  1 32  1  0
  5 33  1  0
  7 34  1  0
  8 35  1  0
 12 36  1  0
 13 37  1  0
 15 38  1  0
 17 39  1  0
 19 40  1  0
 21 41  1  0
 22 42  1  0
 24 43  1  0
 25 44  1  0
 27 45  1  0
 27 46  1  0
 27 47  1  0
 28 48  1  0
 28 49  1  0
 30 50  1  0
 30 51  1  0
 31 52  1  0
M  END
>  <s_m_entry_id>  (34) 
34

>  <MODEL>  (34) 
1

>  <REMARK>  (34) 
 VINA RESULT:    -9.768      0.000      0.000
 INTER + INTRA:         -12.039
 INTER:                 -11.767
 INTRA:                  -0.273
 UNBOUND:                -0.273
  Name = /scratch/kmzp800/tmp2rsfja9d/tmpsbspk22w.pdb
  5 active torsions:
  status: ('A' for Active; 'I' for Inactive)
    1  A    between atoms: O1_1  and  C1_2
    2  A    between atoms: C1_2  and  C2_3
    3  A    between atoms: N1_5  and  C4_6
    4  A    between atoms: C7_9  and  N2_10
    5  A    between atoms: C9_13  and  C10_14
                            x       y       z     vdW  Elec       q    Type
                         _______ _______ _______ _____ _____    ______ ____

>  <TORSDO>  (34) 
F 4

>  <grid_id>  (34) 
syk-prepared

>  <grid_path>  (34) 
syk_vina.pdbqt

>  <grid_filename>  (34) 
syk_vina.pdbqt

>  <docking_score>  (34) 
-9.768

>  <compound_name>  (34) 
CHEMBL3265030_n

>  <index_string>  (34) 
33:0:0

>  <s_m_Source_Path>  (34) 
/projects/mai/users/kmzp800_harry/pmx_colab/docking_jobs/syk/vina_prep/output

>  <s_m_Source_File>  (34) 
ptp1b_docked_conformers.sdf

>  <i_m_Source_File_Index>  (34) 
34

$$$$
CHEMBL3264994
     RDKit          3D

 65 69  0  0  1  0  0  0  0  0999 V2000
    6.0750   -0.3860   16.3210 C   0  0  0  0  0  0  0  0  0  0  0  0
    4.8400   -0.9490   16.2800 N   0  0  0  0  0  0  0  0  0  0  0  0
    4.2160   -0.2690   15.3020 C   0  0  0  0  0  0  0  0  0  0  0  0
    2.9100   -0.4570   14.8590 C   0  0  0  0  0  0  0  0  0  0  0  0
    2.0720   -1.4640   15.4460 N   0  0  0  0  0  0  0  0  0  0  0  0
    2.4670    0.3420   13.8440 N   0  0  0  0  0  0  0  0  0  0  0  0
    3.2540    1.3050   13.2710 C   0  0  0  0  0  0  0  0  0  0  0  0
    4.5710    1.4780   13.7420 C   0  0  0  0  0  0  0  0  0  0  0  0
    4.9870    0.6690   14.7450 N   0  0  0  0  0  0  0  0  0  0  0  0
    6.1730    0.6230   15.3670 C   0  0  0  0  0  0  0  0  0  0  0  0
    0.6940   -1.7210   15.1390 C   0  0  0  0  0  0  0  0  0  0  0  0
    0.0500   -2.7910   15.7660 C   0  0  0  0  0  0  0  0  0  0  0  0
   -1.2930   -3.0670   15.4970 C   0  0  0  0  0  0  0  0  0  0  0  0
   -2.0260   -2.2630   14.6050 C   0  0  0  0  0  0  0  0  0  0  0  0
   -1.3660   -1.2040   13.9600 C   0  0  0  0  0  0  0  0  0  0  0  0
   -0.0240   -0.9310   14.2300 C   0  0  0  0  0  0  0  0  0  0  0  0
   -3.4620   -2.6040   14.2510 C   0  0  0  0  0  0  0  0  0  0  0  0
   -3.6930   -4.1080   14.2400 C   0  0  0  0  0  0  0  0  0  0  0  0
   -3.8390   -2.0760   12.8740 C   0  0  0  0  0  0  0  0  0  0  0  0
   -4.3900   -1.9810   15.2760 C   0  0  0  0  0  0  0  0  0  0  0  0
    2.7130    2.1400   12.1790 C   0  0  0  0  0  0  0  0  0  0  0  0
    3.4770    2.4360   11.0400 C   0  0  0  0  0  0  0  0  0  0  0  0
    2.9480    3.2380   10.0240 C   0  0  0  0  0  0  0  0  0  0  0  0
    1.6510    3.7470   10.1370 C   0  0  0  0  0  0  0  0  0  0  0  0
    0.8730    3.4540   11.2610 C   0  0  0  0  0  0  0  0  0  0  0  0
    1.4140    2.6550   12.2780 C   0  0  0  0  0  0  0  0  0  0  0  0
   -0.4480    4.0020   11.3560 N   0  0  0  0  0  0  0  0  0  0  0  0
   -1.6700    3.2560   11.4660 C   0  0  0  0  0  0  0  0  0  0  0  0
   -1.6700    2.0030   11.3250 O   0  0  0  0  0  0  0  0  0  0  0  0
   -2.9390    3.9570   11.7280 C   0  0  0  0  0  0  0  0  0  0  0  0
   -4.1350    3.4940   11.1620 C   0  0  0  0  0  0  0  0  0  0  0  0
   -5.3400    4.1550   11.4140 C   0  0  0  0  0  0  0  0  0  0  0  0
   -5.3670    5.2880   12.2380 C   0  0  0  0  0  0  0  0  0  0  0  0
   -4.1710    5.7520   12.8050 C   0  0  0  0  0  0  0  0  0  0  0  0
   -2.9660    5.0900   12.5520 C   0  0  0  0  0  0  0  0  0  0  0  0
   -6.6380    5.9810   12.5010 C   0  0  0  0  0  0  0  0  0  0  0  0
   -7.5700    5.9480   11.6540 O   0  0  0  0  0  0  0  0  0  0  0  0
   -6.8220    6.6800   13.6880 O   0  0  0  0  0  0  0  0  0  0  0  0
    6.8807   -0.6839   17.0081 H   0  0  0  0  0  0  0  0  0  0  0  0
    2.5049   -2.0646   16.1621 H   0  0  0  0  0  0  0  0  0  0  0  0
    5.2357    2.2412   13.3112 H   0  0  0  0  0  0  0  0  0  0  0  0
    7.0493    1.2563   15.1642 H   0  0  0  0  0  0  0  0  0  0  0  0
    0.6048   -3.4209   16.4769 H   0  0  0  0  0  0  0  0  0  0  0  0
   -1.7821   -3.9215   15.9876 H   0  0  0  0  0  0  0  0  0  0  0  0
   -1.9124   -0.5834   13.2346 H   0  0  0  0  0  0  0  0  0  0  0  0
    0.4740   -0.0897   13.7258 H   0  0  0  0  0  0  0  0  0  0  0  0
   -3.7498   -4.4778   15.2744 H   0  0  0  0  0  0  0  0  0  0  0  0
   -4.6358   -4.3304   13.7188 H   0  0  0  0  0  0  0  0  0  0  0  0
   -2.8604   -4.6031   13.7188 H   0  0  0  0  0  0  0  0  0  0  0  0
   -4.4750   -1.1853   12.9843 H   0  0  0  0  0  0  0  0  0  0  0  0
   -2.9263   -1.8087   12.3213 H   0  0  0  0  0  0  0  0  0  0  0  0
   -4.3882   -2.8525   12.3213 H   0  0  0  0  0  0  0  0  0  0  0  0
   -4.0324   -2.2211   16.2882 H   0  0  0  0  0  0  0  0  0  0  0  0
   -4.4047   -0.8893   15.1416 H   0  0  0  0  0  0  0  0  0  0  0  0
   -5.4060   -2.3807   15.1416 H   0  0  0  0  0  0  0  0  0  0  0  0
    4.4971    2.0352   10.9458 H   0  0  0  0  0  0  0  0  0  0  0  0
    3.5532    3.4686    9.1348 H   0  0  0  0  0  0  0  0  0  0  0  0
    1.2405    4.3813    9.3375 H   0  0  0  0  0  0  0  0  0  0  0  0
    0.8087    2.4288   13.1682 H   0  0  0  0  0  0  0  0  0  0  0  0
   -0.5284    5.0288   11.3442 H   0  0  0  0  0  0  0  0  0  0  0  0
   -4.1248    2.6044   10.5151 H   0  0  0  0  0  0  0  0  0  0  0  0
   -6.2723    3.7840   10.9632 H   0  0  0  0  0  0  0  0  0  0  0  0
   -4.1812    6.6414   13.4521 H   0  0  0  0  0  0  0  0  0  0  0  0
   -2.0335    5.4608   13.0025 H   0  0  0  0  0  0  0  0  0  0  0  0
   -7.6788    7.1449   13.8610 H   0  0  0  0  0  0  0  0  0  0  0  0
  1  2  1  0
  1 10  2  0
  2  3  2  0
  3  4  1  0
  3  9  1  0
  4  5  1  0
  4  6  2  0
  5 11  1  0
  6  7  1  0
  7  8  2  0
  7 21  1  0
  8  9  1  0
  9 10  1  0
 11 12  2  0
 11 16  1  0
 12 13  1  0
 13 14  2  0
 14 15  1  0
 14 17  1  0
 15 16  2  0
 17 20  1  0
 17 18  1  0
 17 19  1  0
 21 26  1  0
 21 22  2  0
 22 23  1  0
 23 24  2  0
 24 25  1  0
 25 27  1  0
 25 26  2  0
 27 28  1  0
 28 30  1  0
 28 29  2  0
 30 35  1  0
 30 31  2  0
 31 32  1  0
 32 33  2  0
 33 36  1  0
 33 34  1  0
 34 35  2  0
 36 38  1  0
 36 37  2  0
  1 39  1  0
  5 40  1  0
  8 41  1  0
 10 42  1  0
 12 43  1  0
 13 44  1  0
 15 45  1  0
 16 46  1  0
 18 47  1  0
 18 48  1  0
 18 49  1  0
 19 50  1  0
 19 51  1  0
 19 52  1  0
 20 53  1  0
 20 54  1  0
 20 55  1  0
 22 56  1  0
 23 57  1  0
 24 58  1  0
 26 59  1  0
 27 60  1  0
 31 61  1  0
 32 62  1  0
 34 63  1  0
 35 64  1  0
 38 65  1  0
M  END
>  <s_m_entry_id>  (35) 
35

>  <MODEL>  (35) 
1

>  <REMARK>  (35) 
 VINA RESULT:   -10.040      0.000      0.000
 INTER + INTRA:         -14.416
 INTER:                 -13.562
 INTRA:                  -0.853
 UNBOUND:                -0.853
  Name = /scratch/kmzp800/tmpsyc2bet_/tmpxjaf1uws.pdb
  9 active torsions:
  status: ('A' for Active; 'I' for Inactive)
    1  A    between atoms: N2_5  and  C4_6
    2  A    between atoms: C7_9  and  C8_10
    3  A    between atoms: C8_10  and  C9_11
    4  A    between atoms: C8_10  and  C10_12
    5  A    between atoms: C8_10  and  C11_13
    6  A    between atoms: C14_17  and  C15_18
    7  A    between atoms: C19_22  and  N4_23
    8  A    between atoms: C20_24  and  C21_26
    9  A    between atoms: C24_29  and  C25_30
                            x       y       z     vdW  Elec       q    Type
                         _______ _______ _______ _____ _____    ______ ____

>  <TORSDO>  (35) 
F 6

>  <grid_id>  (35) 
syk-prepared

>  <grid_path>  (35) 
syk_vina.pdbqt

>  <grid_filename>  (35) 
syk_vina.pdbqt

>  <docking_score>  (35) 
-10.04

>  <compound_name>  (35) 
CHEMBL3264994

>  <index_string>  (35) 
34:0:0

>  <s_m_Source_Path>  (35) 
/projects/mai/users/kmzp800_harry/pmx_colab/docking_jobs/syk/vina_prep/output

>  <s_m_Source_File>  (35) 
ptp1b_docked_conformers.sdf

>  <i_m_Source_File_Index>  (35) 
35

$$$$
CHEMBL3265000
     RDKit          3D

 68 72  0  0  1  0  0  0  0  0999 V2000
    0.8900   -0.9180   14.5050 C   0  0  0  0  0  0  0  0  0  0  0  0
    0.4830   -2.0920   15.1580 C   0  0  0  0  0  0  0  0  0  0  0  0
   -0.8390   -2.5350   15.0530 C   0  0  0  0  0  0  0  0  0  0  0  0
   -1.7630   -1.8120   14.2930 C   0  0  0  0  0  0  0  0  0  0  0  0
   -1.3710   -0.6400   13.6320 C   0  0  0  0  0  0  0  0  0  0  0  0
   -0.0460   -0.2030   13.7460 C   0  0  0  0  0  0  0  0  0  0  0  0
    6.4810    0.1720   16.0490 C   0  0  0  0  0  0  0  0  0  0  0  0
    6.1460    0.8350   14.9140 N   0  0  0  0  0  0  0  0  0  0  0  0
    4.8640    0.4890   14.7120 C   0  0  0  0  0  0  0  0  0  0  0  0
    4.0390    0.9080   13.6720 C   0  0  0  0  0  0  0  0  0  0  0  0
    4.5290    1.7780   12.6440 N   0  0  0  0  0  0  0  0  0  0  0  0
    2.7630    0.4260   13.6440 N   0  0  0  0  0  0  0  0  0  0  0  0
    2.2790   -0.4270   14.6000 C   0  0  0  0  0  0  0  0  0  0  0  0
    3.1290   -0.8260   15.6500 C   0  0  0  0  0  0  0  0  0  0  0  0
    4.3940   -0.3400   15.6490 N   0  0  0  0  0  0  0  0  0  0  0  0
    5.3930   -0.5640   16.5140 C   0  0  0  0  0  0  0  0  0  0  0  0
    3.7210    2.4590   11.6750 C   0  0  0  0  0  0  0  0  0  0  0  0
    4.2530    2.7250   10.4110 C   0  0  0  0  0  0  0  0  0  0  0  0
    3.4890    3.3960    9.4520 C   0  0  0  0  0  0  0  0  0  0  0  0
    2.1830    3.8200    9.7490 C   0  0  0  0  0  0  0  0  0  0  0  0
    1.6500    3.5760   11.0240 C   0  0  0  0  0  0  0  0  0  0  0  0
    2.4230    2.8960   11.9780 C   0  0  0  0  0  0  0  0  0  0  0  0
    1.4020    4.4860    8.7990 O   0  0  0  0  0  0  0  0  0  0  0  0
    0.2920    3.8780    8.1520 C   0  0  0  0  0  0  0  0  0  0  0  0
    0.3590    4.0240   11.3250 O   0  0  0  0  0  0  0  0  0  0  0  0
    0.0050    5.4010   11.3270 C   0  0  0  0  0  0  0  0  0  0  0  0
   -2.3320    0.1300   12.8240 C   0  0  0  0  0  0  0  0  0  0  0  0
   -3.4750   -0.3450   12.5850 O   0  0  0  0  0  0  0  0  0  0  0  0
   -1.9500    1.4160   12.3100 N   0  0  0  0  0  0  0  0  0  0  0  0
   -2.7730    2.3340   11.5790 C   0  0  0  0  0  0  0  0  0  0  0  0
   -2.4560    2.6030   10.2450 C   0  0  0  0  0  0  0  0  0  0  0  0
   -3.2260    3.5020    9.5020 C   0  0  0  0  0  0  0  0  0  0  0  0
   -4.3330    4.1380   10.0820 C   0  0  0  0  0  0  0  0  0  0  0  0
   -4.6360    3.8830   11.4260 C   0  0  0  0  0  0  0  0  0  0  0  0
   -3.8650    2.9840   12.1690 C   0  0  0  0  0  0  0  0  0  0  0  0
   -5.1120    5.1150    9.2920 C   0  0  0  0  0  0  0  0  0  0  0  0
   -5.5580    6.1430    9.8680 O   0  0  0  0  0  0  0  0  0  0  0  0
   -5.3980    4.9410    7.8970 N   0  0  0  0  0  0  0  0  0  0  0  0
   -6.1510    3.5530    7.1800 S   0  0  0  0  0  6  0  0  0  0  0  0
   -7.1120    4.0150    6.1210 O   0  0  0  0  0  0  0  0  0  0  0  0
   -5.1130    2.6770    6.5380 O   0  0  0  0  0  0  0  0  0  0  0  0
   -7.0450    2.6350    8.4120 C   0  0  0  0  0  0  0  0  0  0  0  0
    1.2072   -2.6659   15.7548 H   0  0  0  0  0  0  0  0  0  0  0  0
   -1.1526   -3.4542   15.5694 H   0  0  0  0  0  0  0  0  0  0  0  0
   -2.8020   -2.1644   14.2134 H   0  0  0  0  0  0  0  0  0  0  0  0
    0.2658    0.7176   13.2309 H   0  0  0  0  0  0  0  0  0  0  0  0
    7.4684    0.2099   16.5323 H   0  0  0  0  0  0  0  0  0  0  0  0
    5.5472    1.9265   12.5974 H   0  0  0  0  0  0  0  0  0  0  0  0
    2.7793   -1.5062   16.4406 H   0  0  0  0  0  0  0  0  0  0  0  0
    5.3605   -1.2006   17.4105 H   0  0  0  0  0  0  0  0  0  0  0  0
    5.2774    2.4051   10.1694 H   0  0  0  0  0  0  0  0  0  0  0  0
    3.9137    3.5937    8.4567 H   0  0  0  0  0  0  0  0  0  0  0  0
    2.0051    2.7031   12.9771 H   0  0  0  0  0  0  0  0  0  0  0  0
   -0.4084    3.4944    8.9085 H   0  0  0  0  0  0  0  0  0  0  0  0
   -0.2188    4.6223    7.5234 H   0  0  0  0  0  0  0  0  0  0  0  0
    0.6441    3.0468    7.5234 H   0  0  0  0  0  0  0  0  0  0  0  0
   -0.0859    5.7547   12.3646 H   0  0  0  0  0  0  0  0  0  0  0  0
    0.7834    5.9805   10.8090 H   0  0  0  0  0  0  0  0  0  0  0  0
   -0.9563    5.5332   10.8090 H   0  0  0  0  0  0  0  0  0  0  0  0
   -0.9788    1.7104   12.4860 H   0  0  0  0  0  0  0  0  0  0  0  0
   -1.5948    2.1040    9.7766 H   0  0  0  0  0  0  0  0  0  0  0  0
   -2.9619    3.7121    8.4551 H   0  0  0  0  0  0  0  0  0  0  0  0
   -5.4869    4.3940   11.9002 H   0  0  0  0  0  0  0  0  0  0  0  0
   -4.1168    2.7861   13.2214 H   0  0  0  0  0  0  0  0  0  0  0  0
   -5.1323    5.7093    7.2646 H   0  0  0  0  0  0  0  0  0  0  0  0
   -6.7279    2.9606    9.4137 H   0  0  0  0  0  0  0  0  0  0  0  0
   -8.1236    2.8148    8.2923 H   0  0  0  0  0  0  0  0  0  0  0  0
   -6.8367    1.5616    8.2923 H   0  0  0  0  0  0  0  0  0  0  0  0
  1 13  1  0
  1  2  2  0
  1  6  1  0
  2  3  1  0
  3  4  2  0
  4  5  1  0
  5  6  2  0
  5 27  1  0
  7 16  2  0
  7  8  1  0
  8  9  2  0
  9 15  1  0
  9 10  1  0
 10 11  1  0
 10 12  2  0
 11 17  1  0
 12 13  1  0
 13 14  2  0
 14 15  1  0
 15 16  1  0
 17 22  1  0
 17 18  2  0
 18 19  1  0
 19 20  2  0
 20 21  1  0
 20 23  1  0
 21 25  1  0
 21 22  2  0
 23 24  1  0
 25 26  1  0
 27 28  2  0
 27 29  1  0
 29 30  1  0
 30 35  1  0
 30 31  2  0
 31 32  1  0
 32 33  2  0
 33 34  1  0
 33 36  1  0
 34 35  2  0
 36 37  2  0
 36 38  1  0
 38 39  1  0
 39 42  1  0
 39 40  2  0
 39 41  2  0
  2 43  1  0
  3 44  1  0
  4 45  1  0
  6 46  1  0
  7 47  1  0
 11 48  1  0
 14 49  1  0
 16 50  1  0
 18 51  1  0
 19 52  1  0
 22 53  1  0
 24 54  1  0
 24 55  1  0
 24 56  1  0
 26 57  1  0
 26 58  1  0
 26 59  1  0
 29 60  1  0
 31 61  1  0
 32 62  1  0
 34 63  1  0
 35 64  1  0
 38 65  1  0
 42 66  1  0
 42 67  1  0
 42 68  1  0
M  END
>  <s_m_entry_id>  (36) 
36

>  <MODEL>  (36) 
1

>  <REMARK>  (36) 
 VINA RESULT:    -8.151      0.000      0.000
 INTER + INTRA:         -13.619
 INTER:                 -12.439
 INTRA:                  -1.180
 UNBOUND:                -1.180
  Name = /scratch/kmzp800/tmpg18bze3b/tmpime4_9ty.pdb
  12 active torsions:
  status: ('A' for Active; 'I' for Inactive)
    1  A    between atoms: N2_5  and  C4_6
    2  A    between atoms: C7_9  and  O1_10
    3  A    between atoms: O1_10  and  C8_11
    4  A    between atoms: C9_12  and  O2_13
    5  A    between atoms: O2_13  and  C10_14
    6  A    between atoms: C12_17  and  C13_18
    7  A    between atoms: C17_22  and  C18_23
    8  A    between atoms: N4_25  and  C19_26
    9  A    between atoms: C22_29  and  C23_30
   10  A    between atoms: C23_30  and  N5_32
   11  A    between atoms: N5_32  and  S1_33
   12  A    between atoms: S1_33  and  C24_36
                            x       y       z     vdW  Elec       q    Type
                         _______ _______ _______ _____ _____    ______ ____

>  <TORSDO>  (36) 
F 9

>  <grid_id>  (36) 
syk-prepared

>  <grid_path>  (36) 
syk_vina.pdbqt

>  <grid_filename>  (36) 
syk_vina.pdbqt

>  <docking_score>  (36) 
-8.151

>  <compound_name>  (36) 
CHEMBL3265000

>  <index_string>  (36) 
35:0:0

>  <s_m_Source_Path>  (36) 
/projects/mai/users/kmzp800_harry/pmx_colab/docking_jobs/syk/vina_prep/output

>  <s_m_Source_File>  (36) 
ptp1b_docked_conformers.sdf

>  <i_m_Source_File_Index>  (36) 
36

$$$$
CHEMBL3265034
     RDKit          3D

 53 58  0  0  1  0  0  0  0  0999 V2000
    5.8300   -0.4550   16.2750 C   0  0  0  0  0  0  0  0  0  0  0  0
    4.5680   -0.9530   16.2450 N   0  0  0  0  0  0  0  0  0  0  0  0
    3.9770   -0.2570   15.2590 C   0  0  0  0  0  0  0  0  0  0  0  0
    2.6630   -0.3860   14.8190 C   0  0  0  0  0  0  0  0  0  0  0  0
    1.7790   -1.3390   15.4290 N   0  0  0  0  0  0  0  0  0  0  0  0
    2.2550    0.4230   13.7960 N   0  0  0  0  0  0  0  0  0  0  0  0
    3.0910    1.3350   13.2080 C   0  0  0  0  0  0  0  0  0  0  0  0
    4.4170    1.4450   13.6720 C   0  0  0  0  0  0  0  0  0  0  0  0
    4.7940    0.6320   14.6880 N   0  0  0  0  0  0  0  0  0  0  0  0
    5.9780    0.5340   15.3060 C   0  0  0  0  0  0  0  0  0  0  0  0
    2.5980    2.1860   12.1040 C   0  0  0  0  0  0  0  0  0  0  0  0
    3.5170    2.7360   11.1740 C   0  0  0  0  0  0  0  0  0  0  0  0
    3.0780    3.5500   10.1120 C   0  0  0  0  0  0  0  0  0  0  0  0
    1.7130    3.7880   10.0190 C   0  0  0  0  0  0  0  0  0  0  0  0
    0.9760    4.5240    9.1200 C   0  0  0  0  0  0  0  0  0  0  0  0
   -0.3230    4.4150    9.4990 N   0  0  0  0  0  0  0  0  0  0  0  0
   -0.4230    3.6520   10.5840 N   0  0  0  0  0  0  0  0  0  0  0  0
    0.8200    3.2670   10.9050 C   0  0  0  0  0  0  0  0  0  0  0  0
    1.2180    2.4590   11.9650 C   0  0  0  0  0  0  0  0  0  0  0  0
    0.4080   -1.5880   15.0900 C   0  0  0  0  0  0  0  0  0  0  0  0
   -0.1760   -2.7930   15.4950 C   0  0  0  0  0  0  0  0  0  0  0  0
   -1.5090   -3.0740   15.1850 C   0  0  0  0  0  0  0  0  0  0  0  0
   -2.2740   -2.1510   14.4650 C   0  0  0  0  0  0  0  0  0  0  0  0
   -1.6950   -0.9410   14.0570 C   0  0  0  0  0  0  0  0  0  0  0  0
   -0.3610   -0.6620   14.3680 C   0  0  0  0  0  0  0  0  0  0  0  0
   -3.6990   -2.4750   14.1450 C   0  0  0  0  0  0  0  0  0  0  0  0
   -3.8120   -3.8190   13.4240 C   0  0  0  0  0  0  0  0  0  0  0  0
   -5.2900   -4.1810   13.2770 C   0  0  0  0  0  0  0  0  0  0  0  0
   -5.8900   -4.2690   14.5470 O   0  0  0  0  0  0  0  0  0  0  0  0
   -5.9680   -2.9560   15.0500 C   0  0  0  0  0  0  0  0  0  0  0  0
   -4.5700   -2.4500   15.4030 C   0  0  0  0  0  0  0  0  0  0  0  0
    6.6211   -0.7847   16.9646 H   0  0  0  0  0  0  0  0  0  0  0  0
    2.1726   -1.9058   16.1937 H   0  0  0  0  0  0  0  0  0  0  0  0
    5.1197    2.1641   13.2259 H   0  0  0  0  0  0  0  0  0  0  0  0
    6.8853    1.1176   15.0913 H   0  0  0  0  0  0  0  0  0  0  0  0
    4.5906    2.5231   11.2842 H   0  0  0  0  0  0  0  0  0  0  0  0
    3.7858    3.9788    9.3874 H   0  0  0  0  0  0  0  0  0  0  0  0
    1.3641    5.0908    8.2608 H   0  0  0  0  0  0  0  0  0  0  0  0
   -1.2899    3.4044   11.0822 H   0  0  0  0  0  0  0  0  0  0  0  0
    0.4831    2.0461   12.6718 H   0  0  0  0  0  0  0  0  0  0  0  0
    0.4187   -3.5246   16.0617 H   0  0  0  0  0  0  0  0  0  0  0  0
   -1.9583   -4.0245   15.5084 H   0  0  0  0  0  0  0  0  0  0  0  0
   -2.2914   -0.2101   13.4913 H   0  0  0  0  0  0  0  0  0  0  0  0
    0.0886    0.2886   14.0451 H   0  0  0  0  0  0  0  0  0  0  0  0
   -4.0723   -1.6959   13.4641 H   0  0  0  0  0  0  0  0  0  0  0  0
   -3.3498   -3.7438   12.4287 H   0  0  0  0  0  0  0  0  0  0  0  0
   -3.2942   -4.5971   14.0041 H   0  0  0  0  0  0  0  0  0  0  0  0
   -5.7986   -3.4049   12.6863 H   0  0  0  0  0  0  0  0  0  0  0  0
   -5.3762   -5.1521   12.7676 H   0  0  0  0  0  0  0  0  0  0  0  0
   -6.4118   -2.2991   14.2874 H   0  0  0  0  0  0  0  0  0  0  0  0
   -6.5937   -2.9515   15.9547 H   0  0  0  0  0  0  0  0  0  0  0  0
   -4.1260   -3.0993   16.1720 H   0  0  0  0  0  0  0  0  0  0  0  0
   -4.6335   -1.4226   15.7908 H   0  0  0  0  0  0  0  0  0  0  0  0
  1  2  1  0
  1 10  2  0
  2  3  2  0
  3  4  1  0
  3  9  1  0
  4  5  1  0
  4  6  2  0
  5 20  1  0
  6  7  1  0
  7  8  2  0
  7 11  1  0
  8  9  1  0
  9 10  1  0
 11 12  2  0
 11 19  1  0
 12 13  1  0
 13 14  2  0
 14 18  1  0
 14 15  1  0
 15 16  2  0
 16 17  1  0
 17 18  1  0
 18 19  2  0
 20 21  2  0
 20 25  1  0
 21 22  1  0
 22 23  2  0
 23 24  1  0
 23 26  1  0
 24 25  2  0
 26 31  1  0
 26 27  1  0
 27 28  1  0
 28 29  1  0
 29 30  1  0
 30 31  1  0
  1 32  1  0
  5 33  1  0
  8 34  1  0
 10 35  1  0
 12 36  1  0
 13 37  1  0
 15 38  1  0
 17 39  1  0
 19 40  1  0
 21 41  1  0
 22 42  1  0
 24 43  1  0
 25 44  1  0
 26 45  1  0
 27 46  1  0
 27 47  1  0
 28 48  1  0
 28 49  1  0
 30 50  1  0
 30 51  1  0
 31 52  1  0
 31 53  1  0
M  END
>  <s_m_entry_id>  (37) 
37

>  <MODEL>  (37) 
1

>  <REMARK>  (37) 
 VINA RESULT:    -9.944      0.000      0.000
 INTER + INTRA:         -12.096
 INTER:                 -11.688
 INTRA:                  -0.408
 UNBOUND:                -0.408
  Name = /scratch/kmzp800/tmpm4fmp0ot/tmp86nlwb7w.pdb
  3 active torsions:
  status: ('A' for Active; 'I' for Inactive)
    1  A    between atoms: N2_5  and  C4_6
    2  A    between atoms: C7_9  and  C8_10
    3  A    between atoms: C15_19  and  C16_20
                            x       y       z     vdW  Elec       q    Type
                         _______ _______ _______ _____ _____    ______ ____

>  <TORSDO>  (37) 
F 3

>  <grid_id>  (37) 
syk-prepared

>  <grid_path>  (37) 
syk_vina.pdbqt

>  <grid_filename>  (37) 
syk_vina.pdbqt

>  <docking_score>  (37) 
-9.944

>  <compound_name>  (37) 
CHEMBL3265034

>  <index_string>  (37) 
36:0:0

>  <s_m_Source_Path>  (37) 
/projects/mai/users/kmzp800_harry/pmx_colab/docking_jobs/syk/vina_prep/output

>  <s_m_Source_File>  (37) 
ptp1b_docked_conformers.sdf

>  <i_m_Source_File_Index>  (37) 
37

$$$$
CHEMBL3265026
     RDKit          3D

 51 55  0  0  1  0  0  0  0  0999 V2000
    5.5330   -0.6150   16.2640 C   0  0  0  0  0  0  0  0  0  0  0  0
    4.2520   -1.0490   16.1390 N   0  0  0  0  0  0  0  0  0  0  0  0
    3.7590   -0.2960   15.1410 C   0  0  0  0  0  0  0  0  0  0  0  0
    2.4700   -0.3460   14.6170 C   0  0  0  0  0  0  0  0  0  0  0  0
    1.5100   -1.2720   15.1450 N   0  0  0  0  0  0  0  0  0  0  0  0
    2.1660    0.5100   13.5960 N   0  0  0  0  0  0  0  0  0  0  0  0
    3.0830    1.3960   13.0900 C   0  0  0  0  0  0  0  0  0  0  0  0
    4.3790    1.4250   13.6400 C   0  0  0  0  0  0  0  0  0  0  0  0
    4.6520    0.5670   14.6490 N   0  0  0  0  0  0  0  0  0  0  0  0
    5.7890    0.3920   15.3370 C   0  0  0  0  0  0  0  0  0  0  0  0
    2.7080    2.3020   11.9850 C   0  0  0  0  0  0  0  0  0  0  0  0
    3.6670    2.6920   11.0370 C   0  0  0  0  0  0  0  0  0  0  0  0
    3.3270    3.5550    9.9910 C   0  0  0  0  0  0  0  0  0  0  0  0
    2.0210    4.0360    9.8840 C   0  0  0  0  0  0  0  0  0  0  0  0
    1.0490    3.6320   10.8090 C   0  0  0  0  0  0  0  0  0  0  0  0
    1.3910    2.7790   11.8600 C   0  0  0  0  0  0  0  0  0  0  0  0
   -0.2930    4.0990   10.6510 N   0  0  0  0  0  0  0  0  0  0  0  0
   -0.6960    4.7600    9.4120 C   0  0  0  0  0  0  0  0  0  0  0  0
    0.4390    5.6510    8.9040 C   0  0  0  0  0  0  0  0  0  0  0  0
    1.6680    4.9200    8.8590 O   0  0  0  0  0  0  0  0  0  0  0  0
    0.1510   -1.4570   14.7260 C   0  0  0  0  0  0  0  0  0  0  0  0
   -0.4880   -2.6570   15.0450 C   0  0  0  0  0  0  0  0  0  0  0  0
   -1.8100   -2.8790   14.6570 C   0  0  0  0  0  0  0  0  0  0  0  0
   -2.5150   -1.9010   13.9400 C   0  0  0  0  0  0  0  0  0  0  0  0
   -1.8820   -0.6910   13.6140 C   0  0  0  0  0  0  0  0  0  0  0  0
   -0.5510   -0.4760   14.0090 C   0  0  0  0  0  0  0  0  0  0  0  0
   -3.8410   -2.1060   13.5430 O   0  0  0  0  0  0  0  0  0  0  0  0
   -4.2450   -3.2230   12.7600 C   0  0  0  0  0  0  0  0  0  0  0  0
   -2.5950    0.2780   12.8990 O   0  0  0  0  0  0  0  0  0  0  0  0
   -1.9600    1.3120   12.1610 C   0  0  0  0  0  0  0  0  0  0  0  0
    6.2617   -1.0024   16.9913 H   0  0  0  0  0  0  0  0  0  0  0  0
    1.8347   -1.8743   15.9149 H   0  0  0  0  0  0  0  0  0  0  0  0
    5.1424    2.1210   13.2622 H   0  0  0  0  0  0  0  0  0  0  0  0
    6.7352    0.9353   15.1972 H   0  0  0  0  0  0  0  0  0  0  0  0
    4.6970    2.3145   11.1180 H   0  0  0  0  0  0  0  0  0  0  0  0
    4.0868    3.8543    9.2541 H   0  0  0  0  0  0  0  0  0  0  0  0
    0.6276    2.4790   12.5929 H   0  0  0  0  0  0  0  0  0  0  0  0
   -0.9760    3.9694   11.4110 H   0  0  0  0  0  0  0  0  0  0  0  0
   -0.9305    3.9996    8.6526 H   0  0  0  0  0  0  0  0  0  0  0  0
   -1.5842    5.3796    9.6046 H   0  0  0  0  0  0  0  0  0  0  0  0
    0.1935    6.0090    7.8933 H   0  0  0  0  0  0  0  0  0  0  0  0
    0.5567    6.5029    9.5898 H   0  0  0  0  0  0  0  0  0  0  0  0
    0.0543   -3.4325   15.6059 H   0  0  0  0  0  0  0  0  0  0  0  0
   -2.3028   -3.8279   14.9153 H   0  0  0  0  0  0  0  0  0  0  0  0
   -0.0539    0.4714   13.7535 H   0  0  0  0  0  0  0  0  0  0  0  0
   -4.5433   -4.0476   13.4241 H   0  0  0  0  0  0  0  0  0  0  0  0
   -5.0967   -2.9370   12.1253 H   0  0  0  0  0  0  0  0  0  0  0  0
   -3.4075   -3.5480   12.1253 H   0  0  0  0  0  0  0  0  0  0  0  0
   -1.5140    2.0382   12.8565 H   0  0  0  0  0  0  0  0  0  0  0  0
   -1.1717    0.8793   11.5274 H   0  0  0  0  0  0  0  0  0  0  0  0
   -2.7024    1.8194   11.5274 H   0  0  0  0  0  0  0  0  0  0  0  0
  1  2  1  0
  1 10  2  0
  2  3  2  0
  3  4  1  0
  3  9  1  0
  4  5  1  0
  4  6  2  0
  5 21  1  0
  6  7  1  0
  7  8  2  0
  7 11  1  0
  8  9  1  0
  9 10  1  0
 11 12  2  0
 11 16  1  0
 12 13  1  0
 13 14  2  0
 14 15  1  0
 14 20  1  0
 15 16  2  0
 15 17  1  0
 17 18  1  0
 18 19  1  0
 19 20  1  0
 21 22  2  0
 21 26  1  0
 22 23  1  0
 23 24  2  0
 24 25  1  0
 24 27  1  0
 25 26  2  0
 25 29  1  0
 27 28  1  0
 29 30  1  0
  1 31  1  0
  5 32  1  0
  8 33  1  0
 10 34  1  0
 12 35  1  0
 13 36  1  0
 16 37  1  0
 17 38  1  0
 18 39  1  0
 18 40  1  0
 19 41  1  0
 19 42  1  0
 22 43  1  0
 23 44  1  0
 26 45  1  0
 28 46  1  0
 28 47  1  0
 28 48  1  0
 30 49  1  0
 30 50  1  0
 30 51  1  0
M  END
>  <s_m_entry_id>  (38) 
38

>  <MODEL>  (38) 
1

>  <REMARK>  (38) 
 VINA RESULT:    -9.594      0.000      0.000
 INTER + INTRA:         -12.294
 INTER:                 -11.837
 INTRA:                  -0.457
 UNBOUND:                -0.457
  Name = /scratch/kmzp800/tmpge1m4r22/tmp28q1d0hu.pdb
  6 active torsions:
  status: ('A' for Active; 'I' for Inactive)
    1  A    between atoms: N2_5  and  C4_6
    2  A    between atoms: C7_9  and  O1_10
    3  A    between atoms: O1_10  and  C8_11
    4  A    between atoms: C9_12  and  O2_13
    5  A    between atoms: O2_13  and  C10_14
    6  A    between atoms: C12_17  and  C13_18
                            x       y       z     vdW  Elec       q    Type
                         _______ _______ _______ _____ _____    ______ ____

>  <TORSDO>  (38) 
F 4

>  <grid_id>  (38) 
syk-prepared

>  <grid_path>  (38) 
syk_vina.pdbqt

>  <grid_filename>  (38) 
syk_vina.pdbqt

>  <docking_score>  (38) 
-9.594

>  <compound_name>  (38) 
CHEMBL3265026

>  <index_string>  (38) 
37:0:0

>  <s_m_Source_Path>  (38) 
/projects/mai/users/kmzp800_harry/pmx_colab/docking_jobs/syk/vina_prep/output

>  <s_m_Source_File>  (38) 
ptp1b_docked_conformers.sdf

>  <i_m_Source_File_Index>  (38) 
38

$$$$
CHEMBL3265033
     RDKit          3D

 54 59  0  0  1  0  0  0  0  0999 V2000
    5.8320   -0.4350   16.2650 C   0  0  0  0  0  0  0  0  0  0  0  0
    4.5760   -0.9490   16.2440 N   0  0  0  0  0  0  0  0  0  0  0  0
    3.9710   -0.2630   15.2600 C   0  0  0  0  0  0  0  0  0  0  0  0
    2.6540   -0.4090   14.8280 C   0  0  0  0  0  0  0  0  0  0  0  0
    1.7870   -1.3710   15.4480 N   0  0  0  0  0  0  0  0  0  0  0  0
    2.2310    0.3900   13.8050 N   0  0  0  0  0  0  0  0  0  0  0  0
    3.0530    1.3110   13.2080 C   0  0  0  0  0  0  0  0  0  0  0  0
    4.3780    1.4370   13.6640 C   0  0  0  0  0  0  0  0  0  0  0  0
    4.7730    0.6330   14.6790 N   0  0  0  0  0  0  0  0  0  0  0  0
    5.9610    0.5520   15.2910 C   0  0  0  0  0  0  0  0  0  0  0  0
    2.5430    2.1500   12.1030 C   0  0  0  0  0  0  0  0  0  0  0  0
    3.4440    2.6700   11.1390 C   0  0  0  0  0  0  0  0  0  0  0  0
    2.9880    3.4710   10.0760 C   0  0  0  0  0  0  0  0  0  0  0  0
    1.6240    3.7280   10.0130 C   0  0  0  0  0  0  0  0  0  0  0  0
    0.8740    4.4570    9.1200 C   0  0  0  0  0  0  0  0  0  0  0  0
   -0.4150    4.3730    9.5370 N   0  0  0  0  0  0  0  0  0  0  0  0
   -0.4970    3.6300   10.6370 N   0  0  0  0  0  0  0  0  0  0  0  0
    0.7490    3.2340   10.9320 C   0  0  0  0  0  0  0  0  0  0  0  0
    1.1630    2.4390   11.9950 C   0  0  0  0  0  0  0  0  0  0  0  0
    0.4160   -1.6360   15.1190 C   0  0  0  0  0  0  0  0  0  0  0  0
   -0.3590   -0.7370   14.3740 C   0  0  0  0  0  0  0  0  0  0  0  0
   -1.6910   -1.0320   14.0740 C   0  0  0  0  0  0  0  0  0  0  0  0
   -2.2760   -2.2320   14.5130 C   0  0  0  0  0  0  0  0  0  0  0  0
   -1.4920   -3.1280   15.2600 C   0  0  0  0  0  0  0  0  0  0  0  0
   -0.1590   -2.8320   15.5590 C   0  0  0  0  0  0  0  0  0  0  0  0
   -3.6500   -2.5370   14.2040 N   0  0  0  0  0  0  0  0  0  0  0  0
   -4.0350   -2.8110   12.8080 C   0  0  0  0  0  0  0  0  0  0  0  0
   -5.5340   -3.0480   12.6280 C   0  0  0  0  0  0  0  0  0  0  0  0
   -6.0960   -4.2810   13.7840 S   0  0  0  0  0  6  0  0  0  0  0  0
   -7.5870   -4.1870   13.9430 O   0  0  0  0  0  0  0  0  0  0  0  0
   -5.7230   -5.6520   13.2930 O   0  0  0  0  0  0  0  0  0  0  0  0
   -5.2970   -3.9600   15.3410 C   0  0  0  0  0  0  0  0  0  0  0  0
   -4.6420   -2.5880   15.2850 C   0  0  0  0  0  0  0  0  0  0  0  0
    6.6313   -0.7518   16.9511 H   0  0  0  0  0  0  0  0  0  0  0  0
    2.1931   -1.9311   16.2111 H   0  0  0  0  0  0  0  0  0  0  0  0
    5.0690    2.1635   13.2115 H   0  0  0  0  0  0  0  0  0  0  0  0
    6.8596    1.1464   15.0689 H   0  0  0  0  0  0  0  0  0  0  0  0
    4.5170    2.4433   11.2238 H   0  0  0  0  0  0  0  0  0  0  0  0
    3.6826    3.8770    9.3258 H   0  0  0  0  0  0  0  0  0  0  0  0
    1.2460    5.0017    8.2398 H   0  0  0  0  0  0  0  0  0  0  0  0
   -1.3537    3.4025   11.1616 H   0  0  0  0  0  0  0  0  0  0  0  0
    0.4413    2.0480   12.7273 H   0  0  0  0  0  0  0  0  0  0  0  0
    0.0843    0.2067   14.0233 H   0  0  0  0  0  0  0  0  0  0  0  0
   -2.2881   -0.3177   13.4881 H   0  0  0  0  0  0  0  0  0  0  0  0
   -1.9321   -4.0723   15.6131 H   0  0  0  0  0  0  0  0  0  0  0  0
    0.4412   -3.5444   16.1440 H   0  0  0  0  0  0  0  0  0  0  0  0
   -3.7413   -1.9499   12.1897 H   0  0  0  0  0  0  0  0  0  0  0  0
   -3.5210   -3.7349   12.5044 H   0  0  0  0  0  0  0  0  0  0  0  0
   -6.0759   -2.1074   12.8058 H   0  0  0  0  0  0  0  0  0  0  0  0
   -5.7246   -3.3989   11.6031 H   0  0  0  0  0  0  0  0  0  0  0  0
   -6.0423   -3.9806   16.1497 H   0  0  0  0  0  0  0  0  0  0  0  0
   -4.5349   -4.7293   15.5345 H   0  0  0  0  0  0  0  0  0  0  0  0
   -4.1432   -2.3853   16.2442 H   0  0  0  0  0  0  0  0  0  0  0  0
   -5.4167   -1.8309   15.0937 H   0  0  0  0  0  0  0  0  0  0  0  0
  1  2  1  0
  1 10  2  0
  2  3  2  0
  3  4  1  0
  3  9  1  0
  4  5  1  0
  4  6  2  0
  5 20  1  0
  6  7  1  0
  7  8  2  0
  7 11  1  0
  8  9  1  0
  9 10  1  0
 11 12  2  0
 11 19  1  0
 12 13  1  0
 13 14  2  0
 14 18  1  0
 14 15  1  0
 15 16  2  0
 16 17  1  0
 17 18  1  0
 18 19  2  0
 20 25  1  0
 20 21  2  0
 21 22  1  0
 22 23  2  0
 23 24  1  0
 23 26  1  0
 24 25  2  0
 26 33  1  0
 26 27  1  0
 27 28  1  0
 28 29  1  0
 29 30  2  0
 29 32  1  0
 29 31  2  0
 32 33  1  0
  1 34  1  0
  5 35  1  0
  8 36  1  0
 10 37  1  0
 12 38  1  0
 13 39  1  0
 15 40  1  0
 17 41  1  0
 19 42  1  0
 21 43  1  0
 22 44  1  0
 24 45  1  0
 25 46  1  0
 27 47  1  0
 27 48  1  0
 28 49  1  0
 28 50  1  0
 32 51  1  0
 32 52  1  0
 33 53  1  0
 33 54  1  0
M  END
>  <s_m_entry_id>  (39) 
39

>  <MODEL>  (39) 
1

>  <REMARK>  (39) 
 VINA RESULT:   -10.189      0.000      0.000
 INTER + INTRA:         -12.314
 INTER:                 -11.976
 INTRA:                  -0.338
 UNBOUND:                -0.338
  Name = /scratch/kmzp800/tmpycr8g3gr/tmpwvasvado.pdb
  3 active torsions:
  status: ('A' for Active; 'I' for Inactive)
    1  A    between atoms: N2_5  and  C4_6
    2  A    between atoms: C7_9  and  N3_10
    3  A    between atoms: C14_21  and  C15_22
                            x       y       z     vdW  Elec       q    Type
                         _______ _______ _______ _____ _____    ______ ____

>  <TORSDO>  (39) 
F 3

>  <grid_id>  (39) 
syk-prepared

>  <grid_path>  (39) 
syk_vina.pdbqt

>  <grid_filename>  (39) 
syk_vina.pdbqt

>  <docking_score>  (39) 
-10.189

>  <compound_name>  (39) 
CHEMBL3265033

>  <index_string>  (39) 
38:0:0

>  <s_m_Source_Path>  (39) 
/projects/mai/users/kmzp800_harry/pmx_colab/docking_jobs/syk/vina_prep/output

>  <s_m_Source_File>  (39) 
ptp1b_docked_conformers.sdf

>  <i_m_Source_File_Index>  (39) 
39

$$$$
CHEMBL3265011
     RDKit          3D

 51 54  0  0  1  0  0  0  0  0999 V2000
    5.4640   -0.5650   16.2620 C   0  0  0  0  0  0  0  0  0  0  0  0
    4.1610   -0.9310   16.1680 N   0  0  0  0  0  0  0  0  0  0  0  0
    3.7050   -0.2130   15.1270 C   0  0  0  0  0  0  0  0  0  0  0  0
    2.4140   -0.2170   14.6100 C   0  0  0  0  0  0  0  0  0  0  0  0
    1.3930   -1.0340   15.2010 N   0  0  0  0  0  0  0  0  0  0  0  0
    2.1540    0.6000   13.5490 N   0  0  0  0  0  0  0  0  0  0  0  0
    3.1150    1.3940   12.9780 C   0  0  0  0  0  0  0  0  0  0  0  0
    4.4130    1.3810   13.5250 C   0  0  0  0  0  0  0  0  0  0  0  0
    4.6440    0.5650   14.5810 N   0  0  0  0  0  0  0  0  0  0  0  0
    5.7720    0.3680   15.2750 C   0  0  0  0  0  0  0  0  0  0  0  0
    2.7490    2.2820   11.8460 C   0  0  0  0  0  0  0  0  0  0  0  0
    1.4230    2.7420   11.7840 C   0  0  0  0  0  0  0  0  0  0  0  0
    0.9910    3.5880   10.7570 C   0  0  0  0  0  0  0  0  0  0  0  0
    1.8990    3.9790    9.7670 C   0  0  0  0  0  0  0  0  0  0  0  0
    3.2180    3.5260    9.8030 C   0  0  0  0  0  0  0  0  0  0  0  0
    3.6530    2.6830   10.8300 C   0  0  0  0  0  0  0  0  0  0  0  0
    5.0630    2.2000   10.7640 C   0  0  0  0  0  0  0  0  0  0  0  0
   -0.4030    4.0650   10.7220 C   0  0  0  0  0  0  0  0  0  0  0  0
   -0.9280    4.5720   11.7480 O   0  0  0  0  0  0  0  0  0  0  0  0
   -1.1730    3.9540    9.5280 N   0  0  0  0  0  0  0  0  0  0  0  0
    0.0650   -1.2400   14.7000 C   0  0  0  0  0  0  0  0  0  0  0  0
   -0.5310   -2.4930   14.8600 C   0  0  0  0  0  0  0  0  0  0  0  0
   -1.8170   -2.7310   14.3720 C   0  0  0  0  0  0  0  0  0  0  0  0
   -2.5260   -1.7160   13.7080 C   0  0  0  0  0  0  0  0  0  0  0  0
   -1.9320   -0.4570   13.5340 C   0  0  0  0  0  0  0  0  0  0  0  0
   -0.6390   -0.2280   14.0310 C   0  0  0  0  0  0  0  0  0  0  0  0
   -3.8160   -1.9370   13.2130 O   0  0  0  0  0  0  0  0  0  0  0  0
   -4.2940   -3.2290   12.8610 C   0  0  0  0  0  0  0  0  0  0  0  0
   -2.6390    0.5480   12.8640 O   0  0  0  0  0  0  0  0  0  0  0  0
   -2.1110    1.2410   11.7410 C   0  0  0  0  0  0  0  0  0  0  0  0
    6.1740   -0.9493   17.0092 H   0  0  0  0  0  0  0  0  0  0  0  0
    1.6389   -1.5222   16.0740 H   0  0  0  0  0  0  0  0  0  0  0  0
    5.2119    2.0122   13.1086 H   0  0  0  0  0  0  0  0  0  0  0  0
    6.7467    0.8471   15.1005 H   0  0  0  0  0  0  0  0  0  0  0  0
    0.7087    2.4301   12.5601 H   0  0  0  0  0  0  0  0  0  0  0  0
    1.5714    4.6467    8.9565 H   0  0  0  0  0  0  0  0  0  0  0  0
    3.9221    3.8349    9.0163 H   0  0  0  0  0  0  0  0  0  0  0  0
    5.4529    2.0664   11.7839 H   0  0  0  0  0  0  0  0  0  0  0  0
    5.0968    1.2390   10.2297 H   0  0  0  0  0  0  0  0  0  0  0  0
    5.6789    2.9384   10.2297 H   0  0  0  0  0  0  0  0  0  0  0  0
   -2.1467    4.2893    9.5101 H   0  0  0  0  0  0  0  0  0  0  0  0
   -0.7558    3.5385    8.6829 H   0  0  0  0  0  0  0  0  0  0  0  0
    0.0163   -3.2971   15.3737 H   0  0  0  0  0  0  0  0  0  0  0  0
   -2.2785   -3.7202   14.5083 H   0  0  0  0  0  0  0  0  0  0  0  0
   -0.1718    0.7584   13.8939 H   0  0  0  0  0  0  0  0  0  0  0  0
   -4.5064   -3.8030   13.7750 H   0  0  0  0  0  0  0  0  0  0  0  0
   -5.2151   -3.1301   12.2678 H   0  0  0  0  0  0  0  0  0  0  0  0
   -3.5304   -3.7534   12.2678 H   0  0  0  0  0  0  0  0  0  0  0  0
   -1.4782    2.0716   12.0870 H   0  0  0  0  0  0  0  0  0  0  0  0
   -1.5087    0.5496   11.1334 H   0  0  0  0  0  0  0  0  0  0  0  0
   -2.9375    1.6382   11.1334 H   0  0  0  0  0  0  0  0  0  0  0  0
  1  2  1  0
  1 10  2  0
  2  3  2  0
  3  4  1  0
  3  9  1  0
  4  5  1  0
  4  6  2  0
  5 21  1  0
  6  7  1  0
  7  8  2  0
  7 11  1  0
  8  9  1  0
  9 10  1  0
 11 12  2  0
 11 16  1  0
 12 13  1  0
 13 14  2  0
 13 18  1  0
 14 15  1  0
 15 16  2  0
 16 17  1  0
 18 19  2  0
 18 20  1  0
 21 22  2  0
 21 26  1  0
 22 23  1  0
 23 24  2  0
 24 25  1  0
 24 27  1  0
 25 26  2  0
 25 29  1  0
 27 28  1  0
 29 30  1  0
  1 31  1  0
  5 32  1  0
  8 33  1  0
 10 34  1  0
 12 35  1  0
 14 36  1  0
 15 37  1  0
 17 38  1  0
 17 39  1  0
 17 40  1  0
 20 41  1  0
 20 42  1  0
 22 43  1  0
 23 44  1  0
 26 45  1  0
 28 46  1  0
 28 47  1  0
 28 48  1  0
 30 49  1  0
 30 50  1  0
 30 51  1  0
M  END
>  <s_m_entry_id>  (40) 
40

>  <MODEL>  (40) 
1

>  <REMARK>  (40) 
 VINA RESULT:    -9.601      0.000      0.000
 INTER + INTRA:         -12.435
 INTER:                 -12.407
 INTRA:                  -0.028
 UNBOUND:                -0.028
  Name = /scratch/kmzp800/tmpb7u4xstm/tmpvvldud8t.pdb
  8 active torsions:
  status: ('A' for Active; 'I' for Inactive)
    1  A    between atoms: N2_5  and  C4_6
    2  A    between atoms: C7_9  and  O1_10
    3  A    between atoms: O1_10  and  C8_11
    4  A    between atoms: C9_12  and  O2_13
    5  A    between atoms: O2_13  and  C10_14
    6  A    between atoms: C12_17  and  C13_18
    7  A    between atoms: C15_20  and  C16_21
    8  A    between atoms: C19_26  and  C20_27
                            x       y       z     vdW  Elec       q    Type
                         _______ _______ _______ _____ _____    ______ ____

>  <TORSDO>  (40) 
F 5

>  <grid_id>  (40) 
syk-prepared

>  <grid_path>  (40) 
syk_vina.pdbqt

>  <grid_filename>  (40) 
syk_vina.pdbqt

>  <docking_score>  (40) 
-9.601

>  <compound_name>  (40) 
CHEMBL3265011

>  <index_string>  (40) 
39:0:0

>  <s_m_Source_Path>  (40) 
/projects/mai/users/kmzp800_harry/pmx_colab/docking_jobs/syk/vina_prep/output

>  <s_m_Source_File>  (40) 
ptp1b_docked_conformers.sdf

>  <i_m_Source_File_Index>  (40) 
40

$$$$
CHEMBL3265035
     RDKit          3D

 51 55  0  0  1  0  0  0  0  0999 V2000
    1.8240   -1.4790   15.4180 N   0  0  0  0  0  0  0  0  0  0  0  0
    2.6660   -0.4830   14.8180 C   0  0  0  0  0  0  0  0  0  0  0  0
    2.2290    0.3090   13.7950 N   0  0  0  0  0  0  0  0  0  0  0  0
    3.0260    1.2620   13.2140 C   0  0  0  0  0  0  0  0  0  0  0  0
    4.3420    1.4310   13.6880 C   0  0  0  0  0  0  0  0  0  0  0  0
    4.7500    0.6320   14.7030 N   0  0  0  0  0  0  0  0  0  0  0  0
    5.9330    0.5870   15.3280 C   0  0  0  0  0  0  0  0  0  0  0  0
    5.8250   -0.4120   16.2940 C   0  0  0  0  0  0  0  0  0  0  0  0
    4.5880   -0.9670   16.2540 N   0  0  0  0  0  0  0  0  0  0  0  0
    3.9710   -0.2960   15.2670 C   0  0  0  0  0  0  0  0  0  0  0  0
    2.5010    2.0910   12.1110 C   0  0  0  0  0  0  0  0  0  0  0  0
    3.3740    2.6250   11.1260 C   0  0  0  0  0  0  0  0  0  0  0  0
    2.8830    3.4160   10.0710 C   0  0  0  0  0  0  0  0  0  0  0  0
    1.5130    3.6490   10.0370 C   0  0  0  0  0  0  0  0  0  0  0  0
    0.7320    4.3640    9.1590 C   0  0  0  0  0  0  0  0  0  0  0  0
   -0.5460    4.2590    9.6010 N   0  0  0  0  0  0  0  0  0  0  0  0
   -0.5920    3.5170   10.7050 N   0  0  0  0  0  0  0  0  0  0  0  0
    0.6660    3.1430   10.9730 C   0  0  0  0  0  0  0  0  0  0  0  0
    1.1150    2.3570   12.0300 C   0  0  0  0  0  0  0  0  0  0  0  0
   -2.2040   -2.4460   14.4460 C   0  0  0  0  0  0  0  0  0  0  0  0
   -1.6060   -1.2980   13.9010 C   0  0  0  0  0  0  0  0  0  0  0  0
   -0.2840   -0.9700   14.2120 C   0  0  0  0  0  0  0  0  0  0  0  0
    0.4660   -1.7820   15.0740 C   0  0  0  0  0  0  0  0  0  0  0  0
   -0.1260   -2.9250   15.6200 C   0  0  0  0  0  0  0  0  0  0  0  0
   -1.4480   -3.2550   15.3100 C   0  0  0  0  0  0  0  0  0  0  0  0
   -3.5680   -2.7860   14.1260 N   0  0  0  0  0  0  0  0  0  0  0  0
   -4.0950   -2.5740   12.7860 C   0  0  0  0  0  0  0  0  0  0  0  0
   -4.4390   -3.4470   15.0900 C   0  0  0  0  0  0  0  0  0  0  0  0
   -5.3280   -2.4270   15.7790 C   0  0  0  0  0  0  0  0  0  0  0  0
   -4.7280   -2.0190   16.9700 O   0  0  0  0  0  0  0  0  0  0  0  0
    2.2408   -2.0359   16.1776 H   0  0  0  0  0  0  0  0  0  0  0  0
    5.0135    2.1841   13.2499 H   0  0  0  0  0  0  0  0  0  0  0  0
    6.8136    1.2128   15.1208 H   0  0  0  0  0  0  0  0  0  0  0  0
    6.6261   -0.7072   16.9876 H   0  0  0  0  0  0  0  0  0  0  0  0
    4.4522    2.4166   11.1890 H   0  0  0  0  0  0  0  0  0  0  0  0
    3.5546    3.8323    9.3057 H   0  0  0  0  0  0  0  0  0  0  0  0
    1.0769    4.9140    8.2710 H   0  0  0  0  0  0  0  0  0  0  0  0
   -1.4331    3.2766   11.2487 H   0  0  0  0  0  0  0  0  0  0  0  0
    0.4147    1.9561   12.7776 H   0  0  0  0  0  0  0  0  0  0  0  0
   -2.1834   -0.6517   13.2236 H   0  0  0  0  0  0  0  0  0  0  0  0
    0.1716   -0.0681   13.7773 H   0  0  0  0  0  0  0  0  0  0  0  0
    0.4530   -3.5689   16.2983 H   0  0  0  0  0  0  0  0  0  0  0  0
   -1.9010   -4.1572   15.7469 H   0  0  0  0  0  0  0  0  0  0  0  0
   -5.1136   -2.1642   12.8532 H   0  0  0  0  0  0  0  0  0  0  0  0
   -3.4496   -1.8655   12.2460 H   0  0  0  0  0  0  0  0  0  0  0  0
   -4.1200   -3.5320   12.2460 H   0  0  0  0  0  0  0  0  0  0  0  0
   -5.0678   -4.1826   14.5670 H   0  0  0  0  0  0  0  0  0  0  0  0
   -3.8198   -3.9522   15.8459 H   0  0  0  0  0  0  0  0  0  0  0  0
   -5.4663   -1.5566   15.1208 H   0  0  0  0  0  0  0  0  0  0  0  0
   -6.3064   -2.8800   15.9969 H   0  0  0  0  0  0  0  0  0  0  0  0
   -5.2452   -2.3707   17.7374 H   0  0  0  0  0  0  0  0  0  0  0  0
  1  2  1  0
  1 23  1  0
  2 10  1  0
  2  3  2  0
  3  4  1  0
  4  5  2  0
  4 11  1  0
  5  6  1  0
  6 10  1  0
  6  7  1  0
  7  8  2  0
  8  9  1  0
  9 10  2  0
 11 12  2  0
 11 19  1  0
 12 13  1  0
 13 14  2  0
 14 18  1  0
 14 15  1  0
 15 16  2  0
 16 17  1  0
 17 18  1  0
 18 19  2  0
 20 25  2  0
 20 21  1  0
 20 26  1  0
 21 22  2  0
 22 23  1  0
 23 24  2  0
 24 25  1  0
 26 28  1  0
 26 27  1  0
 28 29  1  0
 29 30  1  0
  1 31  1  0
  5 32  1  0
  7 33  1  0
  8 34  1  0
 12 35  1  0
 13 36  1  0
 15 37  1  0
 17 38  1  0
 19 39  1  0
 21 40  1  0
 22 41  1  0
 24 42  1  0
 25 43  1  0
 27 44  1  0
 27 45  1  0
 27 46  1  0
 28 47  1  0
 28 48  1  0
 29 49  1  0
 29 50  1  0
 30 51  1  0
M  END
>  <s_m_entry_id>  (41) 
41

>  <MODEL>  (41) 
1

>  <REMARK>  (41) 
 VINA RESULT:    -8.937      0.000      0.000
 INTER + INTRA:         -12.151
 INTER:                 -11.811
 INTRA:                  -0.340
 UNBOUND:                -0.340
  Name = /scratch/kmzp800/tmpaxeqpudt/tmprtt1behz.pdb
  7 active torsions:
  status: ('A' for Active; 'I' for Inactive)
    1  A    between atoms: O1_1  and  C1_2
    2  A    between atoms: C1_2  and  C2_3
    3  A    between atoms: C2_3  and  N1_4
    4  A    between atoms: N1_4  and  C3_5
    5  A    between atoms: N1_4  and  C22_30
    6  A    between atoms: C6_8  and  N2_9
    7  A    between atoms: C8_12  and  C9_13
                            x       y       z     vdW  Elec       q    Type
                         _______ _______ _______ _____ _____    ______ ____

>  <TORSDO>  (41) 
F 6

>  <grid_id>  (41) 
syk-prepared

>  <grid_path>  (41) 
syk_vina.pdbqt

>  <grid_filename>  (41) 
syk_vina.pdbqt

>  <docking_score>  (41) 
-8.937

>  <compound_name>  (41) 
CHEMBL3265035

>  <index_string>  (41) 
40:0:0

>  <s_m_Source_Path>  (41) 
/projects/mai/users/kmzp800_harry/pmx_colab/docking_jobs/syk/vina_prep/output

>  <s_m_Source_File>  (41) 
ptp1b_docked_conformers.sdf

>  <i_m_Source_File_Index>  (41) 
41

$$$$
CHEMBL3265020
     RDKit          3D

 48 52  0  0  1  0  0  0  0  0999 V2000
    5.5190   -0.5810   16.2740 C   0  0  0  0  0  0  0  0  0  0  0  0
    4.2380   -1.0120   16.1520 N   0  0  0  0  0  0  0  0  0  0  0  0
    3.7520   -0.2740   15.1390 C   0  0  0  0  0  0  0  0  0  0  0  0
    2.4640   -0.3290   14.6110 C   0  0  0  0  0  0  0  0  0  0  0  0
    1.4990   -1.2420   15.1500 N   0  0  0  0  0  0  0  0  0  0  0  0
    2.1670    0.5120   13.5750 N   0  0  0  0  0  0  0  0  0  0  0  0
    3.0890    1.3860   13.0570 C   0  0  0  0  0  0  0  0  0  0  0  0
    4.3830    1.4200   13.6120 C   0  0  0  0  0  0  0  0  0  0  0  0
    4.6490    0.5770   14.6360 N   0  0  0  0  0  0  0  0  0  0  0  0
    5.7820    0.4110   15.3310 C   0  0  0  0  0  0  0  0  0  0  0  0
    2.7220    2.2770   11.9370 C   0  0  0  0  0  0  0  0  0  0  0  0
    3.7140    2.7000   11.0180 C   0  0  0  0  0  0  0  0  0  0  0  0
    3.3930    3.5480    9.9430 C   0  0  0  0  0  0  0  0  0  0  0  0
    2.0670    3.9540    9.8170 C   0  0  0  0  0  0  0  0  0  0  0  0
    1.1050    3.5540   10.6960 C   0  0  0  0  0  0  0  0  0  0  0  0
    1.3900    2.7150   11.7690 C   0  0  0  0  0  0  0  0  0  0  0  0
   -0.0880    4.1160   10.3100 C   0  0  0  0  0  0  0  0  0  0  0  0
    0.2410    4.8540    9.1720 C   0  0  0  0  0  0  0  0  0  0  0  0
    1.5610    4.7550    8.8700 N   0  0  0  0  0  0  0  0  0  0  0  0
    0.1400   -1.4290   14.7300 C   0  0  0  0  0  0  0  0  0  0  0  0
   -0.5070   -2.6170   15.0760 C   0  0  0  0  0  0  0  0  0  0  0  0
   -1.8290   -2.8410   14.6890 C   0  0  0  0  0  0  0  0  0  0  0  0
   -2.5260   -1.8750   13.9460 C   0  0  0  0  0  0  0  0  0  0  0  0
   -1.8850   -0.6790   13.5930 C   0  0  0  0  0  0  0  0  0  0  0  0
   -0.5530   -0.4620   13.9880 C   0  0  0  0  0  0  0  0  0  0  0  0
   -3.8510   -2.0840   13.5490 O   0  0  0  0  0  0  0  0  0  0  0  0
   -4.2610   -3.2200   12.7990 C   0  0  0  0  0  0  0  0  0  0  0  0
   -2.5880    0.2770   12.8520 O   0  0  0  0  0  0  0  0  0  0  0  0
   -1.9450    1.2830   12.0830 C   0  0  0  0  0  0  0  0  0  0  0  0
    6.2439   -0.9593   17.0097 H   0  0  0  0  0  0  0  0  0  0  0  0
    1.8190   -1.8331   15.9304 H   0  0  0  0  0  0  0  0  0  0  0  0
    5.1501    2.1077   13.2265 H   0  0  0  0  0  0  0  0  0  0  0  0
    6.7301    0.9497   15.1864 H   0  0  0  0  0  0  0  0  0  0  0  0
    4.7520    2.3596   11.1475 H   0  0  0  0  0  0  0  0  0  0  0  0
    4.1610    3.8783    9.2281 H   0  0  0  0  0  0  0  0  0  0  0  0
    0.5997    2.4016   12.4670 H   0  0  0  0  0  0  0  0  0  0  0  0
   -1.0734    4.0091   10.7871 H   0  0  0  0  0  0  0  0  0  0  0  0
   -0.4819    5.4446    8.5900 H   0  0  0  0  0  0  0  0  0  0  0  0
    2.0622    5.1976    8.0865 H   0  0  0  0  0  0  0  0  0  0  0  0
    0.0290   -3.3815   15.6576 H   0  0  0  0  0  0  0  0  0  0  0  0
   -2.3282   -3.7807   14.9680 H   0  0  0  0  0  0  0  0  0  0  0  0
   -0.0494    0.4762   13.7120 H   0  0  0  0  0  0  0  0  0  0  0  0
   -4.5525   -4.0276   13.4866 H   0  0  0  0  0  0  0  0  0  0  0  0
   -5.1187   -2.9508   12.1650 H   0  0  0  0  0  0  0  0  0  0  0  0
   -3.4291   -3.5606   12.1650 H   0  0  0  0  0  0  0  0  0  0  0  0
   -1.4765    2.0159   12.7563 H   0  0  0  0  0  0  0  0  0  0  0  0
   -1.1734    0.8224   11.4485 H   0  0  0  0  0  0  0  0  0  0  0  0
   -2.6870    1.7898   11.4485 H   0  0  0  0  0  0  0  0  0  0  0  0
  1  2  1  0
  1 10  2  0
  2  3  2  0
  3  4  1  0
  3  9  1  0
  4  5  1  0
  4  6  2  0
  5 20  1  0
  6  7  1  0
  7  8  2  0
  7 11  1  0
  8  9  1  0
  9 10  1  0
 11 12  2  0
 11 16  1  0
 12 13  1  0
 13 14  2  0
 14 15  1  0
 14 19  1  0
 15 16  2  0
 15 17  1  0
 17 18  2  0
 18 19  1  0
 20 21  2  0
 20 25  1  0
 21 22  1  0
 22 23  2  0
 23 24  1  0
 23 26  1  0
 24 25  2  0
 24 28  1  0
 26 27  1  0
 28 29  1  0
  1 30  1  0
  5 31  1  0
  8 32  1  0
 10 33  1  0
 12 34  1  0
 13 35  1  0
 16 36  1  0
 17 37  1  0
 18 38  1  0
 19 39  1  0
 21 40  1  0
 22 41  1  0
 25 42  1  0
 27 43  1  0
 27 44  1  0
 27 45  1  0
 29 46  1  0
 29 47  1  0
 29 48  1  0
M  END
>  <s_m_entry_id>  (42) 
42

>  <MODEL>  (42) 
1

>  <REMARK>  (42) 
 VINA RESULT:    -9.497      0.000      0.000
 INTER + INTRA:         -12.166
 INTER:                 -11.717
 INTRA:                  -0.449
 UNBOUND:                -0.449
  Name = /scratch/kmzp800/tmp1v4rzlkh/tmpa4nf9wnl.pdb
  6 active torsions:
  status: ('A' for Active; 'I' for Inactive)
    1  A    between atoms: N2_5  and  C4_6
    2  A    between atoms: C7_9  and  O1_10
    3  A    between atoms: O1_10  and  C8_11
    4  A    between atoms: C9_12  and  O2_13
    5  A    between atoms: O2_13  and  C10_14
    6  A    between atoms: C12_17  and  C13_18
                            x       y       z     vdW  Elec       q    Type
                         _______ _______ _______ _____ _____    ______ ____

>  <TORSDO>  (42) 
F 4

>  <grid_id>  (42) 
syk-prepared

>  <grid_path>  (42) 
syk_vina.pdbqt

>  <grid_filename>  (42) 
syk_vina.pdbqt

>  <docking_score>  (42) 
-9.497

>  <compound_name>  (42) 
CHEMBL3265020

>  <index_string>  (42) 
41:0:0

>  <s_m_Source_Path>  (42) 
/projects/mai/users/kmzp800_harry/pmx_colab/docking_jobs/syk/vina_prep/output

>  <s_m_Source_File>  (42) 
ptp1b_docked_conformers.sdf

>  <i_m_Source_File_Index>  (42) 
42

$$$$
CHEMBL3265032
     RDKit          3D

 52 57  0  0  1  0  0  0  0  0999 V2000
    5.8350   -0.4300   16.2640 C   0  0  0  0  0  0  0  0  0  0  0  0
    4.5810   -0.9490   16.2470 N   0  0  0  0  0  0  0  0  0  0  0  0
    3.9700   -0.2660   15.2640 C   0  0  0  0  0  0  0  0  0  0  0  0
    2.6530   -0.4170   14.8360 C   0  0  0  0  0  0  0  0  0  0  0  0
    1.7910   -1.3820   15.4570 N   0  0  0  0  0  0  0  0  0  0  0  0
    2.2240    0.3800   13.8140 N   0  0  0  0  0  0  0  0  0  0  0  0
    3.0400    1.3050   13.2150 C   0  0  0  0  0  0  0  0  0  0  0  0
    4.3670    1.4370   13.6680 C   0  0  0  0  0  0  0  0  0  0  0  0
    4.7670    0.6330   14.6810 N   0  0  0  0  0  0  0  0  0  0  0  0
    5.9580    0.5580   15.2900 C   0  0  0  0  0  0  0  0  0  0  0  0
    2.5240    2.1430   12.1140 C   0  0  0  0  0  0  0  0  0  0  0  0
    3.4220    2.6730   11.1510 C   0  0  0  0  0  0  0  0  0  0  0  0
    2.9620    3.4750   10.0900 C   0  0  0  0  0  0  0  0  0  0  0  0
    1.5940    3.7230   10.0290 C   0  0  0  0  0  0  0  0  0  0  0  0
    0.8400    4.4500    9.1390 C   0  0  0  0  0  0  0  0  0  0  0  0
   -0.4490    4.3570    9.5540 N   0  0  0  0  0  0  0  0  0  0  0  0
   -0.5250    3.6100   10.6530 N   0  0  0  0  0  0  0  0  0  0  0  0
    0.7230    3.2210   10.9450 C   0  0  0  0  0  0  0  0  0  0  0  0
    1.1430    2.4240   12.0070 C   0  0  0  0  0  0  0  0  0  0  0  0
    0.4210   -1.6550   15.1310 C   0  0  0  0  0  0  0  0  0  0  0  0
   -0.1680   -2.8190   15.6330 C   0  0  0  0  0  0  0  0  0  0  0  0
   -1.5010   -3.1200   15.3380 C   0  0  0  0  0  0  0  0  0  0  0  0
   -2.2690   -2.2600   14.5380 C   0  0  0  0  0  0  0  0  0  0  0  0
   -1.6710   -1.0940   14.0330 C   0  0  0  0  0  0  0  0  0  0  0  0
   -0.3390   -0.7940   14.3290 C   0  0  0  0  0  0  0  0  0  0  0  0
   -3.6400   -2.5740   14.2270 N   0  0  0  0  0  0  0  0  0  0  0  0
   -4.6820   -2.4450   15.2490 C   0  0  0  0  0  0  0  0  0  0  0  0
   -5.7970   -3.4540   14.9730 C   0  0  0  0  0  0  0  0  0  0  0  0
   -6.2600   -3.3020   13.6540 O   0  0  0  0  0  0  0  0  0  0  0  0
   -5.2350   -3.7790   12.8180 C   0  0  0  0  0  0  0  0  0  0  0  0
   -4.0540   -2.8090   12.8410 C   0  0  0  0  0  0  0  0  0  0  0  0
    6.6375   -0.7440   16.9476 H   0  0  0  0  0  0  0  0  0  0  0  0
    2.2008   -1.9394   16.2201 H   0  0  0  0  0  0  0  0  0  0  0  0
    5.0537    2.1672   13.2150 H   0  0  0  0  0  0  0  0  0  0  0  0
    6.8533    1.1565   15.0658 H   0  0  0  0  0  0  0  0  0  0  0  0
    4.4965    2.4530   11.2355 H   0  0  0  0  0  0  0  0  0  0  0  0
    3.6539    3.8880    9.3412 H   0  0  0  0  0  0  0  0  0  0  0  0
    1.2094    5.0002    8.2611 H   0  0  0  0  0  0  0  0  0  0  0  0
   -1.3796    3.3760   11.1782 H   0  0  0  0  0  0  0  0  0  0  0  0
    0.4238    2.0264   12.7382 H   0  0  0  0  0  0  0  0  0  0  0  0
    0.4204   -3.5018   16.2635 H   0  0  0  0  0  0  0  0  0  0  0  0
   -1.9524   -4.0403   15.7370 H   0  0  0  0  0  0  0  0  0  0  0  0
   -2.2561   -0.4114   13.3992 H   0  0  0  0  0  0  0  0  0  0  0  0
    0.1160    0.1244   13.9296 H   0  0  0  0  0  0  0  0  0  0  0  0
   -4.2484   -2.6404   16.2409 H   0  0  0  0  0  0  0  0  0  0  0  0
   -5.0959   -1.4262   15.2229 H   0  0  0  0  0  0  0  0  0  0  0  0
   -5.4084   -4.4741   15.1085 H   0  0  0  0  0  0  0  0  0  0  0  0
   -6.6276   -3.2783   15.6724 H   0  0  0  0  0  0  0  0  0  0  0  0
   -4.9038   -4.7660   13.1732 H   0  0  0  0  0  0  0  0  0  0  0  0
   -5.6154   -3.8635   11.7893 H   0  0  0  0  0  0  0  0  0  0  0  0
   -4.3539   -1.8556   12.3815 H   0  0  0  0  0  0  0  0  0  0  0  0
   -3.2145   -3.2409   12.2764 H   0  0  0  0  0  0  0  0  0  0  0  0
  1  2  1  0
  1 10  2  0
  2  3  2  0
  3  4  1  0
  3  9  1  0
  4  5  1  0
  4  6  2  0
  5 20  1  0
  6  7  1  0
  7  8  2  0
  7 11  1  0
  8  9  1  0
  9 10  1  0
 11 12  2  0
 11 19  1  0
 12 13  1  0
 13 14  2  0
 14 18  1  0
 14 15  1  0
 15 16  2  0
 16 17  1  0
 17 18  1  0
 18 19  2  0
 20 21  2  0
 20 25  1  0
 21 22  1  0
 22 23  2  0
 23 24  1  0
 23 26  1  0
 24 25  2  0
 26 27  1  0
 26 31  1  0
 27 28  1  0
 28 29  1  0
 29 30  1  0
 30 31  1  0
  1 32  1  0
  5 33  1  0
  8 34  1  0
 10 35  1  0
 12 36  1  0
 13 37  1  0
 15 38  1  0
 17 39  1  0
 19 40  1  0
 21 41  1  0
 22 42  1  0
 24 43  1  0
 25 44  1  0
 27 45  1  0
 27 46  1  0
 28 47  1  0
 28 48  1  0
 30 49  1  0
 30 50  1  0
 31 51  1  0
 31 52  1  0
M  END
>  <s_m_entry_id>  (43) 
43

>  <MODEL>  (43) 
1

>  <REMARK>  (43) 
 VINA RESULT:    -9.852      0.000      0.000
 INTER + INTRA:         -11.846
 INTER:                 -11.579
 INTRA:                  -0.266
 UNBOUND:                -0.266
  Name = /scratch/kmzp800/tmp532pkm_6/tmpfi22hg3k.pdb
  3 active torsions:
  status: ('A' for Active; 'I' for Inactive)
    1  A    between atoms: N2_5  and  C4_6
    2  A    between atoms: C7_9  and  N3_10
    3  A    between atoms: C14_19  and  C15_20
                            x       y       z     vdW  Elec       q    Type
                         _______ _______ _______ _____ _____    ______ ____

>  <TORSDO>  (43) 
F 3

>  <grid_id>  (43) 
syk-prepared

>  <grid_path>  (43) 
syk_vina.pdbqt

>  <grid_filename>  (43) 
syk_vina.pdbqt

>  <docking_score>  (43) 
-9.852

>  <compound_name>  (43) 
CHEMBL3265032

>  <index_string>  (43) 
42:0:0

>  <s_m_Source_Path>  (43) 
/projects/mai/users/kmzp800_harry/pmx_colab/docking_jobs/syk/vina_prep/output

>  <s_m_Source_File>  (43) 
ptp1b_docked_conformers.sdf

>  <i_m_Source_File_Index>  (43) 
43

$$$$
CHEMBL3265002
     RDKit          3D

 65 70  0  0  1  0  0  0  0  0999 V2000
    1.8640    0.9880   13.3120 C   0  0  0  0  0  0  0  0  0  0  0  0
    3.1860    0.5230   13.3460 C   0  0  0  0  0  0  0  0  0  0  0  0
    4.1640    1.1210   12.5480 C   0  0  0  0  0  0  0  0  0  0  0  0
    3.8280    2.1890   11.7110 C   0  0  0  0  0  0  0  0  0  0  0  0
    2.5090    2.6640   11.6610 C   0  0  0  0  0  0  0  0  0  0  0  0
    1.5350    2.0560   12.4660 C   0  0  0  0  0  0  0  0  0  0  0  0
    2.1340    3.7890   10.7810 C   0  0  0  0  0  0  0  0  0  0  0  0
    0.8120    4.0940   10.5850 N   0  0  0  0  0  0  0  0  0  0  0  0
    0.4110    5.1230    9.7830 C   0  0  0  0  0  0  0  0  0  0  0  0
   -0.9750    5.4340    9.5890 N   0  0  0  0  0  0  0  0  0  0  0  0
    1.4020    5.8800    9.1620 C   0  0  0  0  0  0  0  0  0  0  0  0
    1.2190    6.9290    8.3430 N   0  0  0  0  0  0  0  0  0  0  0  0
    2.4810    7.2990    8.0100 C   0  0  0  0  0  0  0  0  0  0  0  0
    3.4050    6.4630    8.6340 C   0  0  0  0  0  0  0  0  0  0  0  0
    2.6910    5.5840    9.3480 N   0  0  0  0  0  0  0  0  0  0  0  0
    3.1150    4.5650   10.1330 C   0  0  0  0  0  0  0  0  0  0  0  0
   -2.1020    4.6730   10.0490 C   0  0  0  0  0  0  0  0  0  0  0  0
   -2.6570    3.6330    9.2930 C   0  0  0  0  0  0  0  0  0  0  0  0
   -3.7700    2.9340    9.7650 C   0  0  0  0  0  0  0  0  0  0  0  0
   -4.3470    3.2680   11.0010 C   0  0  0  0  0  0  0  0  0  0  0  0
   -3.7950    4.3080   11.7630 C   0  0  0  0  0  0  0  0  0  0  0  0
   -2.6770    5.0050   11.2790 C   0  0  0  0  0  0  0  0  0  0  0  0
   -5.4670    2.5850   11.4870 O   0  0  0  0  0  0  0  0  0  0  0  0
   -6.7970    2.9270   11.1190 C   0  0  0  0  0  0  0  0  0  0  0  0
   -4.3740    4.6320   12.9950 O   0  0  0  0  0  0  0  0  0  0  0  0
   -4.9130    5.9160   13.2770 C   0  0  0  0  0  0  0  0  0  0  0  0
    0.0170   -0.6890   13.6270 N   0  0  0  0  0  0  0  0  0  0  0  0
    0.8280    0.3700   14.1580 C   0  0  0  0  0  0  0  0  0  0  0  0
    0.6560    0.7820   15.3370 O   0  0  0  0  0  0  0  0  0  0  0  0
   -3.0100   -2.8520   15.6740 C   0  0  0  0  0  0  0  0  0  0  0  0
   -3.3570   -1.7380   14.8980 C   0  0  0  0  0  0  0  0  0  0  0  0
   -2.3690   -1.0180   14.2190 C   0  0  0  0  0  0  0  0  0  0  0  0
   -1.0230   -1.4030   14.3080 C   0  0  0  0  0  0  0  0  0  0  0  0
   -0.6790   -2.5140   15.0830 C   0  0  0  0  0  0  0  0  0  0  0  0
   -1.6650   -3.2350   15.7620 C   0  0  0  0  0  0  0  0  0  0  0  0
   -5.1890   -5.2400   17.1490 C   0  0  0  0  0  0  0  0  0  0  0  0
   -4.1160   -4.9560   16.3900 N   0  0  0  0  0  0  0  0  0  0  0  0
   -4.0470   -3.6100   16.3910 C   0  0  0  0  0  0  0  0  0  0  0  0
   -5.0230   -3.0290   17.1150 N   0  0  0  0  0  0  0  0  0  0  0  0
   -5.7460   -4.0580   17.5940 C   0  0  0  0  0  0  0  0  0  0  0  0
    3.4544   -0.3166   14.0041 H   0  0  0  0  0  0  0  0  0  0  0  0
    5.1995    0.7512   12.5782 H   0  0  0  0  0  0  0  0  0  0  0  0
    4.6026    2.6598   11.0878 H   0  0  0  0  0  0  0  0  0  0  0  0
    0.4983    2.4223   12.4331 H   0  0  0  0  0  0  0  0  0  0  0  0
   -1.1844    6.2949    9.0638 H   0  0  0  0  0  0  0  0  0  0  0  0
    2.7375    8.1366    7.3446 H   0  0  0  0  0  0  0  0  0  0  0  0
    4.5010    6.5149    8.5556 H   0  0  0  0  0  0  0  0  0  0  0  0
    4.1865    4.3511   10.2600 H   0  0  0  0  0  0  0  0  0  0  0  0
   -2.2140    3.3653    8.3224 H   0  0  0  0  0  0  0  0  0  0  0  0
   -4.1973    2.1170    9.1651 H   0  0  0  0  0  0  0  0  0  0  0  0
   -2.2476    5.8234   11.8756 H   0  0  0  0  0  0  0  0  0  0  0  0
   -7.4000    3.0821   12.0258 H   0  0  0  0  0  0  0  0  0  0  0  0
   -6.7863    3.8516   10.5232 H   0  0  0  0  0  0  0  0  0  0  0  0
   -7.2337    2.1119   10.5232 H   0  0  0  0  0  0  0  0  0  0  0  0
   -4.9724    6.0576   14.3662 H   0  0  0  0  0  0  0  0  0  0  0  0
   -4.2638    6.6899   12.8415 H   0  0  0  0  0  0  0  0  0  0  0  0
   -5.9201    5.9946   12.8415 H   0  0  0  0  0  0  0  0  0  0  0  0
    0.2022   -0.9654   12.6522 H   0  0  0  0  0  0  0  0  0  0  0  0
   -4.4100   -1.4289   14.8227 H   0  0  0  0  0  0  0  0  0  0  0  0
   -2.6489   -0.1447   13.6116 H   0  0  0  0  0  0  0  0  0  0  0  0
    0.3740   -2.8227   15.1590 H   0  0  0  0  0  0  0  0  0  0  0  0
   -1.3836   -4.1081   16.3690 H   0  0  0  0  0  0  0  0  0  0  0  0
   -5.5619   -6.2492   17.3779 H   0  0  0  0  0  0  0  0  0  0  0  0
   -5.1806   -2.0227   17.2678 H   0  0  0  0  0  0  0  0  0  0  0  0
   -6.6355   -3.9713   18.2353 H   0  0  0  0  0  0  0  0  0  0  0  0
  1  2  2  0
  1 28  1  0
  1  6  1  0
  2  3  1  0
  3  4  2  0
  4  5  1  0
  5  6  2  0
  5  7  1  0
  7  8  1  0
  7 16  2  0
  8  9  2  0
  9 10  1  0
  9 11  1  0
 10 17  1  0
 11 15  1  0
 11 12  2  0
 12 13  1  0
 13 14  2  0
 14 15  1  0
 15 16  1  0
 17 22  1  0
 17 18  2  0
 18 19  1  0
 19 20  2  0
 20 23  1  0
 20 21  1  0
 21 25  1  0
 21 22  2  0
 23 24  1  0
 25 26  1  0
 27 28  1  0
 27 33  1  0
 28 29  2  0
 30 35  1  0
 30 38  1  0
 30 31  2  0
 31 32  1  0
 32 33  2  0
 33 34  1  0
 34 35  2  0
 36 40  2  0
 36 37  1  0
 37 38  2  0
 38 39  1  0
 39 40  1  0
  2 41  1  0
  3 42  1  0
  4 43  1  0
  6 44  1  0
 10 45  1  0
 13 46  1  0
 14 47  1  0
 16 48  1  0
 18 49  1  0
 19 50  1  0
 22 51  1  0
 24 52  1  0
 24 53  1  0
 24 54  1  0
 26 55  1  0
 26 56  1  0
 26 57  1  0
 27 58  1  0
 31 59  1  0
 32 60  1  0
 34 61  1  0
 35 62  1  0
 36 63  1  0
 39 64  1  0
 40 65  1  0
M  END
>  <s_m_entry_id>  (44) 
44

>  <MODEL>  (44) 
1

>  <REMARK>  (44) 
 VINA RESULT:    -8.601      0.000      0.000
 INTER + INTRA:         -13.638
 INTER:                 -12.120
 INTRA:                  -1.518
 UNBOUND:                -1.518
  Name = /scratch/kmzp800/tmpqy3ang9a/tmpvegk4x79.pdb
  9 active torsions:
  status: ('A' for Active; 'I' for Inactive)
    1  A    between atoms: C2_3  and  C3_4
    2  A    between atoms: C6_7  and  N2_8
    3  A    between atoms: C7_9  and  C8_11
    4  A    between atoms: C12_15  and  C13_16
    5  A    between atoms: N4_19  and  C15_20
    6  A    between atoms: C18_23  and  O2_24
    7  A    between atoms: O2_24  and  C19_25
    8  A    between atoms: C20_26  and  O3_27
    9  A    between atoms: O3_27  and  C21_28
                            x       y       z     vdW  Elec       q    Type
                         _______ _______ _______ _____ _____    ______ ____

>  <TORSDO>  (44) 
F 7

>  <grid_id>  (44) 
syk-prepared

>  <grid_path>  (44) 
syk_vina.pdbqt

>  <grid_filename>  (44) 
syk_vina.pdbqt

>  <docking_score>  (44) 
-8.601

>  <compound_name>  (44) 
CHEMBL3265002

>  <index_string>  (44) 
43:0:0

>  <s_m_Source_Path>  (44) 
/projects/mai/users/kmzp800_harry/pmx_colab/docking_jobs/syk/vina_prep/output

>  <s_m_Source_File>  (44) 
ptp1b_docked_conformers.sdf

>  <i_m_Source_File_Index>  (44) 
44

$$$$
