CHEMBL3265037
                    3D
 Schrodinger Suite 2021-4.
 56 61  0  0  1  0            999 V2000
   -2.5300    0.7694   12.2595 C   0  0  0  0  0  0
   -2.7382   -0.2719   13.2030 O   0  0  0  0  0  0
   -1.6360   -0.8449   13.8148 C   0  0  0  0  0  0
   -0.3060   -0.4595   13.5132 C   0  0  0  0  0  0
    0.8040   -0.9823   14.2187 C   0  0  0  0  0  0
    2.1352   -0.5735   13.9875 N   0  0  0  0  0  0
    2.6164    0.7153   13.6842 C   0  0  0  0  0  0
    1.7805    1.5917   13.2195 N   0  0  0  0  0  0
    2.1646    2.8871   13.0020 C   0  0  0  0  0  0
    3.4368    3.3303   13.2622 C   0  0  0  0  0  0
    4.3206    2.4237   13.7561 N   0  0  0  0  0  0
    5.6304    2.5575   14.1685 C   0  0  0  0  0  0
    6.0287    1.3280   14.6174 C   0  0  0  0  0  0
    5.0008    0.4040   14.4929 N   0  0  0  0  0  0
    3.9701    1.0671   13.9698 C   0  0  0  0  0  0
    1.0853    3.7592   12.4983 C   0  0  0  0  0  0
    0.0643    3.2346   11.6682 C   0  0  0  0  0  0
   -0.9795    4.0377   11.1743 C   0  0  0  0  0  0
   -1.0440    5.4043   11.5101 C   0  0  0  0  0  0
   -1.9037    6.5116   11.2280 C   0  0  0  0  0  0
   -1.4861    7.6038   11.8179 N   0  0  0  0  0  0
   -0.3677    7.2473   12.5038 N   0  0  0  0  0  0
   -0.0242    5.9203   12.3531 C   0  0  0  0  0  0
    1.0292    5.1274   12.8395 C   0  0  0  0  0  0
    0.5639   -1.9634   15.1977 C   0  0  0  0  0  0
   -0.7465   -2.3952   15.4761 C   0  0  0  0  0  0
   -1.8585   -1.8495   14.7898 C   0  0  0  0  0  0
   -3.1797   -2.2693   15.0605 N   0  0  0  0  0  0
   -3.9056   -2.8953   13.9580 C   0  0  0  0  0  0
   -3.7818   -4.4267   14.0287 C   0  0  0  0  0  0
   -4.2406   -4.8851   15.2964 O   0  0  0  0  0  0
   -3.4490   -4.3651   16.3612 C   0  0  0  0  0  0
   -3.5248   -2.8226   16.3696 C   0  0  0  0  0  0
   -3.4879    1.0941   11.8539 H   0  0  0  0  0  0
   -2.0610    1.6327   12.7329 H   0  0  0  0  0  0
   -1.9221    0.4363   11.4172 H   0  0  0  0  0  0
   -0.1352    0.2490   12.7250 H   0  0  0  0  0  0
    2.8402   -1.1456   14.4309 H   0  0  0  0  0  0
    3.7742    4.3518   13.1270 H   0  0  0  0  0  0
    6.1391    3.5071   14.1023 H   0  0  0  0  0  0
    6.9884    1.0323   15.0167 H   0  0  0  0  0  0
    0.0721    2.1875   11.4118 H   0  0  0  0  0  0
   -1.7383    3.6060   10.5387 H   0  0  0  0  0  0
   -2.7933    6.5393   10.6176 H   0  0  0  0  0  0
    0.1622    7.9269   13.0433 H   0  0  0  0  0  0
    1.7748    5.5712   13.4841 H   0  0  0  0  0  0
    1.3856   -2.3939   15.7530 H   0  0  0  0  0  0
   -0.8714   -3.1493   16.2384 H   0  0  0  0  0  0
   -3.5433   -2.5556   12.9871 H   0  0  0  0  0  0
   -4.9550   -2.6046   14.0217 H   0  0  0  0  0  0
   -4.3848   -4.8861   13.2462 H   0  0  0  0  0  0
   -2.7497   -4.7446   13.8678 H   0  0  0  0  0  0
   -3.8198   -4.7621   17.3072 H   0  0  0  0  0  0
   -2.4241   -4.7185   16.2516 H   0  0  0  0  0  0
   -4.5424   -2.5105   16.6126 H   0  0  0  0  0  0
   -2.8904   -2.3983   17.1456 H   0  0  0  0  0  0
  1  2  1  0  0  0
  1 34  1  0  0  0
  1 35  1  0  0  0
  1 36  1  0  0  0
  2  3  1  0  0  0
  3  4  2  0  0  0
  3 27  1  0  0  0
  4  5  1  0  0  0
  4 37  1  0  0  0
  5  6  1  0  0  0
  5 25  2  0  0  0
  6  7  1  0  0  0
  6 38  1  0  0  0
  7  8  2  0  0  0
  7 15  1  0  0  0
  8  9  1  0  0  0
  9 10  2  0  0  0
  9 16  1  0  0  0
 10 11  1  0  0  0
 10 39  1  0  0  0
 11 12  1  0  0  0
 11 15  1  0  0  0
 12 13  2  0  0  0
 12 40  1  0  0  0
 13 14  1  0  0  0
 13 41  1  0  0  0
 14 15  2  0  0  0
 16 17  2  0  0  0
 16 24  1  0  0  0
 17 18  1  0  0  0
 17 42  1  0  0  0
 18 19  2  0  0  0
 18 43  1  0  0  0
 19 20  1  0  0  0
 19 23  1  0  0  0
 20 21  2  0  0  0
 20 44  1  0  0  0
 21 22  1  0  0  0
 22 23  1  0  0  0
 22 45  1  0  0  0
 23 24  2  0  0  0
 24 46  1  0  0  0
 25 26  1  0  0  0
 25 47  1  0  0  0
 26 27  2  0  0  0
 26 48  1  0  0  0
 27 28  1  0  0  0
 28 29  1  0  0  0
 28 33  1  0  0  0
 29 30  1  0  0  0
 29 49  1  0  0  0
 29 50  1  0  0  0
 30 31  1  0  0  0
 30 51  1  0  0  0
 30 52  1  0  0  0
 31 32  1  0  0  0
 32 33  1  0  0  0
 32 53  1  0  0  0
 32 54  1  0  0  0
 33 55  1  0  0  0
 33 56  1  0  0  0
M  END
> <s_m_entry_id>
680

> <IC50[nM]>
0.44

> <s_m_Source_Path>
/projects/mai/users/kmzp800_harry/pmx_colab/docking_jobs/syk

> <s_m_Source_File>
tnks2_lig.sdf

> <i_m_Source_File_Index>
1

> <s_m_job_name>
glide-dock_SP_tnks2_no_const

> <r_i_docking_score>
-6.33102615323706

> <r_i_glide_gscore>
-6.33102615323706

> <r_i_glide_emodel>
-67.195268277087

$$$$
CHEMBL3259820
                    3D
 Schrodinger Suite 2021-4.
 48 51  0  0  1  0            999 V2000
   -3.9588   -2.0610   13.0622 C   0  0  0  0  0  0
   -3.4617   -0.8060   13.5133 O   0  0  0  0  0  0
   -2.0987   -0.7434   13.6648 C   0  0  0  0  0  0
   -1.3913    0.1686   12.8594 C   0  0  0  0  0  0
    0.0076    0.2717   12.9505 C   0  0  0  0  0  0
    0.7220   -0.5215   13.8780 C   0  0  0  0  0  0
    2.1172   -0.4934   14.0384 N   0  0  0  0  0  0
    3.0564    0.5209   13.7989 C   0  0  0  0  0  0
    2.7702    1.5245   13.0172 N   0  0  0  0  0  0
    3.6976    2.5250   12.8289 C   0  0  0  0  0  0
    4.9369    2.5106   13.4114 C   0  0  0  0  0  0
    5.2238    1.4739   14.2388 N   0  0  0  0  0  0
    6.3281    1.2050   15.0176 C   0  0  0  0  0  0
    6.0300    0.0892   15.7486 C   0  0  0  0  0  0
    4.7740   -0.3960   15.4176 N   0  0  0  0  0  0
    4.3013    0.4329   14.4864 C   0  0  0  0  0  0
    3.2778    3.6572   11.9839 C   0  0  0  0  0  0
    3.2360    4.9671   12.5102 C   0  0  0  0  0  0
    2.8400    6.0587   11.7102 C   0  0  0  0  0  0
    2.5028    5.8665   10.3502 C   0  0  0  0  0  0
    2.5464    4.5549    9.8228 C   0  0  0  0  0  0
    2.9223    3.4647   10.6324 C   0  0  0  0  0  0
    2.0462    7.0095    9.4811 C   0  0  0  0  0  0
    1.3805    6.8050    8.4676 O   0  0  0  0  0  0
    2.4308    8.2431    9.8174 N   0  0  0  0  0  0
    0.0080   -1.4260   14.6913 C   0  0  0  0  0  0
   -1.4012   -1.5486   14.5992 C   0  0  0  0  0  0
   -2.1386   -2.3982   15.3945 O   0  0  0  0  0  0
   -1.4475   -3.3398   16.1989 C   0  0  0  0  0  0
   -4.9831   -1.9352   12.7125 H   0  0  0  0  0  0
   -3.3802   -2.4542   12.2259 H   0  0  0  0  0  0
   -3.9834   -2.8073   13.8562 H   0  0  0  0  0  0
   -1.9245    0.7765   12.1443 H   0  0  0  0  0  0
    0.5053    0.9576   12.2834 H   0  0  0  0  0  0
    2.4776   -1.1806   14.6870 H   0  0  0  0  0  0
    5.6831    3.2892   13.2873 H   0  0  0  0  0  0
    7.1828    1.8635   15.0172 H   0  0  0  0  0  0
    6.6291   -0.3958   16.5018 H   0  0  0  0  0  0
    3.5013    5.1380   13.5428 H   0  0  0  0  0  0
    2.8047    7.0442   12.1567 H   0  0  0  0  0  0
    2.2810    4.3770    8.7905 H   0  0  0  0  0  0
    2.9457    2.4686   10.2148 H   0  0  0  0  0  0
    2.1489    9.0155    9.2345 H   0  0  0  0  0  0
    2.9905    8.4473   10.6511 H   0  0  0  0  0  0
    0.5675   -2.0186   15.4001 H   0  0  0  0  0  0
   -2.1831   -4.0258   16.6173 H   0  0  0  0  0  0
   -0.7443   -3.9398   15.6176 H   0  0  0  0  0  0
   -0.9207   -2.8528   17.0190 H   0  0  0  0  0  0
  1  2  1  0  0  0
  1 30  1  0  0  0
  1 31  1  0  0  0
  1 32  1  0  0  0
  2  3  1  0  0  0
  3  4  2  0  0  0
  3 27  1  0  0  0
  4  5  1  0  0  0
  4 33  1  0  0  0
  5  6  2  0  0  0
  5 34  1  0  0  0
  6  7  1  0  0  0
  6 26  1  0  0  0
  7  8  1  0  0  0
  7 35  1  0  0  0
  8  9  2  0  0  0
  8 16  1  0  0  0
  9 10  1  0  0  0
 10 11  2  0  0  0
 10 17  1  0  0  0
 11 12  1  0  0  0
 11 36  1  0  0  0
 12 13  1  0  0  0
 12 16  1  0  0  0
 13 14  2  0  0  0
 13 37  1  0  0  0
 14 15  1  0  0  0
 14 38  1  0  0  0
 15 16  2  0  0  0
 17 18  2  0  0  0
 17 22  1  0  0  0
 18 19  1  0  0  0
 18 39  1  0  0  0
 19 20  2  0  0  0
 19 40  1  0  0  0
 20 21  1  0  0  0
 20 23  1  0  0  0
 21 22  2  0  0  0
 21 41  1  0  0  0
 22 42  1  0  0  0
 23 24  2  0  0  0
 23 25  1  0  0  0
 25 43  1  0  0  0
 25 44  1  0  0  0
 26 27  2  0  0  0
 26 45  1  0  0  0
 27 28  1  0  0  0
 28 29  1  0  0  0
 29 46  1  0  0  0
 29 47  1  0  0  0
 29 48  1  0  0  0
M  END
> <s_m_entry_id>
681

> <IC50[nM]>
17.7

> <s_m_Source_Path>
/projects/mai/users/kmzp800_harry/pmx_colab/docking_jobs/syk

> <s_m_Source_File>
tnks2_lig.sdf

> <i_m_Source_File_Index>
2

> <s_m_job_name>
glide-dock_SP_tnks2_no_const

> <r_i_docking_score>
-7.23872732035016

> <r_i_glide_gscore>
-7.23872732035016

> <r_i_glide_emodel>
-66.503847758766

$$$$
CHEMBL3265021
                    3D
 Schrodinger Suite 2021-4.
 47 51  0  0  1  0            999 V2000
    8.3438    4.8054   13.3567 C   0  0  0  0  0  0
    7.1551    4.4037   14.0089 O   0  0  0  0  0  0
    6.0297    4.2680   13.2295 C   0  0  0  0  0  0
    5.6836    5.1907   12.2179 C   0  0  0  0  0  0
    4.4586    5.0711   11.5348 C   0  0  0  0  0  0
    3.5791    4.0091   11.8200 C   0  0  0  0  0  0
    2.3589    3.9892   11.1180 N   0  0  0  0  0  0
    1.1405    3.3399   11.3818 C   0  0  0  0  0  0
    1.0635    2.4052   12.2841 N   0  0  0  0  0  0
   -0.1189    1.7386   12.4973 C   0  0  0  0  0  0
   -1.2677    2.0453   11.8033 C   0  0  0  0  0  0
   -1.1919    3.0223   10.8609 N   0  0  0  0  0  0
   -2.1416    3.5413    9.9996 C   0  0  0  0  0  0
   -1.5044    4.4855    9.2437 C   0  0  0  0  0  0
   -0.1701    4.5946    9.6106 N   0  0  0  0  0  0
    0.0109    3.7120   10.5947 C   0  0  0  0  0  0
   -0.0497    0.6299   13.4809 C   0  0  0  0  0  0
    0.9345    0.6177   14.5002 C   0  0  0  0  0  0
    1.0418   -0.4543   15.4060 C   0  0  0  0  0  0
    0.1444   -1.5252   15.2982 C   0  0  0  0  0  0
   -0.0334   -2.7035   15.9983 N   0  0  0  0  0  0
   -1.0657   -3.4557   15.5409 N   0  0  0  0  0  0
   -1.5752   -2.7812   14.5374 C   0  0  0  0  0  0
   -0.8763   -1.5505   14.3145 C   0  0  0  0  0  0
   -0.9539   -0.4585   13.4176 C   0  0  0  0  0  0
    3.9796    3.0314   12.7609 C   0  0  0  0  0  0
    5.1947    3.1588   13.4769 C   0  0  0  0  0  0
    5.6304    2.2329   14.4011 O   0  0  0  0  0  0
    5.1060    0.9152   14.3182 C   0  0  0  0  0  0
    9.1923    4.4093   13.9170 H   0  0  0  0  0  0
    8.4303    5.8890   13.3652 H   0  0  0  0  0  0
    8.4150    4.4100   12.3378 H   0  0  0  0  0  0
    6.3401    6.0039   11.9701 H   0  0  0  0  0  0
    4.1923    5.8187   10.8038 H   0  0  0  0  0  0
    2.2558    4.7171   10.4267 H   0  0  0  0  0  0
   -2.2183    1.5491   11.9332 H   0  0  0  0  0  0
   -3.1561    3.1760   10.0070 H   0  0  0  0  0  0
   -1.9087    5.1018    8.4527 H   0  0  0  0  0  0
    1.6289    1.4406   14.5915 H   0  0  0  0  0  0
    1.8035   -0.4536   16.1721 H   0  0  0  0  0  0
    0.5122   -3.0069   16.7965 H   0  0  0  0  0  0
   -2.4172   -3.1872   13.9992 H   0  0  0  0  0  0
   -1.7066   -0.4899   12.6464 H   0  0  0  0  0  0
    3.3579    2.1767   12.9528 H   0  0  0  0  0  0
    5.6615    0.2619   14.9891 H   0  0  0  0  0  0
    4.0584    0.8752   14.6165 H   0  0  0  0  0  0
    5.2000    0.5104   13.3106 H   0  0  0  0  0  0
  1  2  1  0  0  0
  1 30  1  0  0  0
  1 31  1  0  0  0
  1 32  1  0  0  0
  2  3  1  0  0  0
  3  4  2  0  0  0
  3 27  1  0  0  0
  4  5  1  0  0  0
  4 33  1  0  0  0
  5  6  2  0  0  0
  5 34  1  0  0  0
  6  7  1  0  0  0
  6 26  1  0  0  0
  7  8  1  0  0  0
  7 35  1  0  0  0
  8  9  2  0  0  0
  8 16  1  0  0  0
  9 10  1  0  0  0
 10 11  2  0  0  0
 10 17  1  0  0  0
 11 12  1  0  0  0
 11 36  1  0  0  0
 12 13  1  0  0  0
 12 16  1  0  0  0
 13 14  2  0  0  0
 13 37  1  0  0  0
 14 15  1  0  0  0
 14 38  1  0  0  0
 15 16  2  0  0  0
 17 18  2  0  0  0
 17 25  1  0  0  0
 18 19  1  0  0  0
 18 39  1  0  0  0
 19 20  2  0  0  0
 19 40  1  0  0  0
 20 21  1  0  0  0
 20 24  1  0  0  0
 21 22  1  0  0  0
 21 41  1  0  0  0
 22 23  2  0  0  0
 23 24  1  0  0  0
 23 42  1  0  0  0
 24 25  2  0  0  0
 25 43  1  0  0  0
 26 27  2  0  0  0
 26 44  1  0  0  0
 27 28  1  0  0  0
 28 29  1  0  0  0
 29 45  1  0  0  0
 29 46  1  0  0  0
 29 47  1  0  0  0
M  END
> <s_m_entry_id>
682

> <IC50[nM]>
10.4

> <s_m_Source_Path>
/projects/mai/users/kmzp800_harry/pmx_colab/docking_jobs/syk

> <s_m_Source_File>
tnks2_lig.sdf

> <i_m_Source_File_Index>
3

> <s_m_job_name>
glide-dock_SP_tnks2_no_const

> <r_i_docking_score>
-6.74690280560792

> <r_i_glide_gscore>
-6.74690280560792

> <r_i_glide_emodel>
-63.7167870880899

$$$$
CHEMBL3265016
                    3D
 Schrodinger Suite 2021-4.
 48 52  0  0  1  0            999 V2000
   -4.1176   -1.8269   15.1848 C   0  0  0  0  0  0
   -3.4963   -0.9413   14.2636 O   0  0  0  0  0  0
   -2.1157   -0.9111   14.2169 C   0  0  0  0  0  0
   -1.2850   -1.7343   15.0168 C   0  0  0  0  0  0
    0.1152   -1.6232   14.9471 C   0  0  0  0  0  0
    0.7232   -0.7016   14.0739 C   0  0  0  0  0  0
    2.1291   -0.6551   14.0744 N   0  0  0  0  0  0
    3.0096    0.4105   13.8170 C   0  0  0  0  0  0
    2.6661    1.3802   13.0178 N   0  0  0  0  0  0
    3.5388    2.4213   12.8103 C   0  0  0  0  0  0
    4.7831    2.4918   13.3801 C   0  0  0  0  0  0
    5.1322    1.4893   14.2231 N   0  0  0  0  0  0
    6.2471    1.2926   15.0173 C   0  0  0  0  0  0
    6.0300    0.1458   15.7290 C   0  0  0  0  0  0
    4.7928   -0.3960   15.4177 N   0  0  0  0  0  0
    4.2654    0.4040   14.4903 C   0  0  0  0  0  0
    3.0509    3.4836   11.9235 C   0  0  0  0  0  0
    2.8009    3.2040   10.5669 C   0  0  0  0  0  0
    2.3263    4.1970    9.6888 C   0  0  0  0  0  0
    2.0876    5.5129   10.1446 C   0  0  0  0  0  0
    1.6298    6.7255    9.5269 C   0  0  0  0  0  0
    1.6264    7.6856   10.5051 C   0  0  0  0  0  0
    2.0301    7.1152   11.6987 N   0  0  0  0  0  0
    2.3455    5.7827   11.5215 C   0  0  0  0  0  0
    2.8272    4.7932   12.3988 C   0  0  0  0  0  0
   -0.1048    0.0941   13.2477 C   0  0  0  0  0  0
   -1.5204    0.0051   13.3222 C   0  0  0  0  0  0
   -2.3766    0.7808   12.5652 O   0  0  0  0  0  0
   -1.8159    1.6001   11.5479 C   0  0  0  0  0  0
   -5.2006   -1.7287   15.1066 H   0  0  0  0  0  0
   -3.8421   -1.5939   16.2134 H   0  0  0  0  0  0
   -3.8675   -2.8660   14.9704 H   0  0  0  0  0  0
   -1.6960   -2.4522   15.7105 H   0  0  0  0  0  0
    0.7217   -2.2511   15.5860 H   0  0  0  0  0  0
    2.5547   -1.3304   14.6941 H   0  0  0  0  0  0
    5.4773    3.3125   13.2344 H   0  0  0  0  0  0
    7.0638    1.9988   15.0099 H   0  0  0  0  0  0
    6.6658   -0.3310   16.4586 H   0  0  0  0  0  0
    2.9753    2.2008   10.2125 H   0  0  0  0  0  0
    2.1424    3.9508    8.6532 H   0  0  0  0  0  0
    1.3640    6.8515    8.4883 H   0  0  0  0  0  0
    1.3833    8.7383   10.4544 H   0  0  0  0  0  0
    2.1435    7.6628   12.5470 H   0  0  0  0  0  0
    3.0121    5.0339   13.4361 H   0  0  0  0  0  0
    0.3485    0.7765   12.5518 H   0  0  0  0  0  0
   -2.6186    2.0915   10.9990 H   0  0  0  0  0  0
   -1.1784    2.3790   11.9683 H   0  0  0  0  0  0
   -1.2425    1.0078   10.8320 H   0  0  0  0  0  0
  1  2  1  0  0  0
  1 30  1  0  0  0
  1 31  1  0  0  0
  1 32  1  0  0  0
  2  3  1  0  0  0
  3  4  2  0  0  0
  3 27  1  0  0  0
  4  5  1  0  0  0
  4 33  1  0  0  0
  5  6  2  0  0  0
  5 34  1  0  0  0
  6  7  1  0  0  0
  6 26  1  0  0  0
  7  8  1  0  0  0
  7 35  1  0  0  0
  8  9  2  0  0  0
  8 16  1  0  0  0
  9 10  1  0  0  0
 10 11  2  0  0  0
 10 17  1  0  0  0
 11 12  1  0  0  0
 11 36  1  0  0  0
 12 13  1  0  0  0
 12 16  1  0  0  0
 13 14  2  0  0  0
 13 37  1  0  0  0
 14 15  1  0  0  0
 14 38  1  0  0  0
 15 16  2  0  0  0
 17 18  2  0  0  0
 17 25  1  0  0  0
 18 19  1  0  0  0
 18 39  1  0  0  0
 19 20  2  0  0  0
 19 40  1  0  0  0
 20 21  1  0  0  0
 20 24  1  0  0  0
 21 22  2  0  0  0
 21 41  1  0  0  0
 22 23  1  0  0  0
 22 42  1  0  0  0
 23 24  1  0  0  0
 23 43  1  0  0  0
 24 25  2  0  0  0
 25 44  1  0  0  0
 26 27  2  0  0  0
 26 45  1  0  0  0
 27 28  1  0  0  0
 28 29  1  0  0  0
 29 46  1  0  0  0
 29 47  1  0  0  0
 29 48  1  0  0  0
M  END
> <s_m_entry_id>
683

> <IC50[nM]>
2.7

> <s_m_Source_Path>
/projects/mai/users/kmzp800_harry/pmx_colab/docking_jobs/syk

> <s_m_Source_File>
tnks2_lig.sdf

> <i_m_Source_File_Index>
4

> <s_m_job_name>
glide-dock_SP_tnks2_no_const

> <r_i_docking_score>
-7.17925370394437

> <r_i_glide_gscore>
-7.17925370394437

> <r_i_glide_emodel>
-64.6966709381975

$$$$
CHEMBL3265028
                    3D
 Schrodinger Suite 2021-4.
 43 47  0  0  1  0            999 V2000
    1.0219    4.5414    8.9803 C   0  0  0  0  0  0
   -0.3569    4.7943    8.7471 O   0  0  0  0  0  0
   -1.2854    4.0509    9.4460 C   0  0  0  0  0  0
   -2.6415    4.3286    9.1916 C   0  0  0  0  0  0
   -3.6537    3.5958    9.8352 C   0  0  0  0  0  0
   -3.3160    2.5728   10.7384 C   0  0  0  0  0  0
   -1.9672    2.2796   11.0276 C   0  0  0  0  0  0
   -1.7234    1.2056   11.9074 N   0  0  0  0  0  0
   -0.6050    0.8665   12.6894 C   0  0  0  0  0  0
    0.4865    1.5717   12.6178 N   0  0  0  0  0  0
    1.5942    1.2265   13.3636 C   0  0  0  0  0  0
    1.5816    0.1442   14.2173 C   0  0  0  0  0  0
    0.4321   -0.5759   14.3172 N   0  0  0  0  0  0
    0.1028   -1.6806   15.0794 C   0  0  0  0  0  0
   -1.1960   -1.9867   14.7814 C   0  0  0  0  0  0
   -1.7122   -1.0962   13.8470 N   0  0  0  0  0  0
   -0.7179   -0.2521   13.5623 C   0  0  0  0  0  0
    2.7949    2.0843   13.1562 C   0  0  0  0  0  0
    4.0698    1.7318   13.6711 C   0  0  0  0  0  0
    5.2090    2.5403   13.4627 C   0  0  0  0  0  0
    5.1311    3.7164   12.6865 C   0  0  0  0  0  0
    6.0214    4.7361   12.2173 C   0  0  0  0  0  0
    5.3973    5.6038   11.4527 N   0  0  0  0  0  0
    4.0943    5.2303   11.4669 N   0  0  0  0  0  0
    3.8564    4.0661   12.1744 C   0  0  0  0  0  0
    2.7101    3.2908   12.4188 C   0  0  0  0  0  0
   -0.9585    3.0315   10.3773 C   0  0  0  0  0  0
    1.6211    5.2080    8.3595 H   0  0  0  0  0  0
    1.2900    4.7343   10.0196 H   0  0  0  0  0  0
    1.2916    3.5167    8.7181 H   0  0  0  0  0  0
   -2.9040    5.1031    8.4840 H   0  0  0  0  0  0
   -4.6924    3.8114    9.6208 H   0  0  0  0  0  0
   -4.1058    2.0023   11.2013 H   0  0  0  0  0  0
   -2.4902    0.5612   12.0314 H   0  0  0  0  0  0
    2.4124   -0.1794   14.8304 H   0  0  0  0  0  0
    0.8223   -2.1310   15.7505 H   0  0  0  0  0  0
   -1.8072   -2.7852   15.1793 H   0  0  0  0  0  0
    4.2034    0.8248   14.2409 H   0  0  0  0  0  0
    6.1616    2.2411   13.8748 H   0  0  0  0  0  0
    7.0868    4.8363   12.3748 H   0  0  0  0  0  0
    3.4018    5.7939   10.9941 H   0  0  0  0  0  0
    1.7678    3.6270   12.0173 H   0  0  0  0  0  0
    0.0748    2.8042   10.5583 H   0  0  0  0  0  0
  1  2  1  0  0  0
  1 28  1  0  0  0
  1 29  1  0  0  0
  1 30  1  0  0  0
  2  3  1  0  0  0
  3  4  2  0  0  0
  3 27  1  0  0  0
  4  5  1  0  0  0
  4 31  1  0  0  0
  5  6  2  0  0  0
  5 32  1  0  0  0
  6  7  1  0  0  0
  6 33  1  0  0  0
  7  8  1  0  0  0
  7 27  2  0  0  0
  8  9  1  0  0  0
  8 34  1  0  0  0
  9 10  2  0  0  0
  9 17  1  0  0  0
 10 11  1  0  0  0
 11 12  2  0  0  0
 11 18  1  0  0  0
 12 13  1  0  0  0
 12 35  1  0  0  0
 13 14  1  0  0  0
 13 17  1  0  0  0
 14 15  2  0  0  0
 14 36  1  0  0  0
 15 16  1  0  0  0
 15 37  1  0  0  0
 16 17  2  0  0  0
 18 19  2  0  0  0
 18 26  1  0  0  0
 19 20  1  0  0  0
 19 38  1  0  0  0
 20 21  2  0  0  0
 20 39  1  0  0  0
 21 22  1  0  0  0
 21 25  1  0  0  0
 22 23  2  0  0  0
 22 40  1  0  0  0
 23 24  1  0  0  0
 24 25  1  0  0  0
 24 41  1  0  0  0
 25 26  2  0  0  0
 26 42  1  0  0  0
 27 43  1  0  0  0
M  END
> <s_m_entry_id>
684

> <IC50[nM]>
8.5

> <s_m_Source_Path>
/projects/mai/users/kmzp800_harry/pmx_colab/docking_jobs/syk

> <s_m_Source_File>
tnks2_lig.sdf

> <i_m_Source_File_Index>
5

> <s_m_job_name>
glide-dock_SP_tnks2_no_const

> <r_i_docking_score>
-6.40573086632063

> <r_i_glide_gscore>
-6.40573086632063

> <r_i_glide_emodel>
-60.8057677671665

$$$$
CHEMBL3265012
                    3D
 Schrodinger Suite 2021-4.
 48 51  0  0  1  0            999 V2000
   -3.8831   -1.7736   14.9728 C   0  0  0  0  0  0
   -3.3540   -0.8013   14.0817 O   0  0  0  0  0  0
   -1.9812   -0.7103   13.9584 C   0  0  0  0  0  0
   -1.0757   -1.5164   14.6900 C   0  0  0  0  0  0
    0.3118   -1.3455   14.5474 C   0  0  0  0  0  0
    0.8288   -0.3757   13.6680 C   0  0  0  0  0  0
    2.2261   -0.2670   13.5778 N   0  0  0  0  0  0
    3.0230    0.8854   13.4866 C   0  0  0  0  0  0
    2.6297    1.9137   12.7891 N   0  0  0  0  0  0
    3.4258    3.0356   12.7447 C   0  0  0  0  0  0
    4.6338    3.1289   13.3942 C   0  0  0  0  0  0
    5.0356    2.0568   14.1236 N   0  0  0  0  0  0
    6.1509    1.8335   14.9102 C   0  0  0  0  0  0
    6.0302    0.5697   15.4175 C   0  0  0  0  0  0
    4.8309    0.0039   15.0174 N   0  0  0  0  0  0
    4.2538    0.8854   14.2045 C   0  0  0  0  0  0
    2.9000    4.1610   11.9557 C   0  0  0  0  0  0
    2.8793    5.4657   12.4909 C   0  0  0  0  0  0
    2.4124    6.5524   11.7283 C   0  0  0  0  0  0
    1.9593    6.3625   10.4034 C   0  0  0  0  0  0
    1.4560    7.5280    9.5911 C   0  0  0  0  0  0
    0.5882    7.3919    8.7315 O   0  0  0  0  0  0
    2.0304    8.7120    9.8176 N   0  0  0  0  0  0
    1.9531    5.0487    9.8738 C   0  0  0  0  0  0
    1.5119    4.8022    8.6176 F   0  0  0  0  0  0
    2.4232    3.9668   10.6423 C   0  0  0  0  0  0
   -0.0716    0.4104   12.9144 C   0  0  0  0  0  0
   -1.4758    0.2566   13.0600 C   0  0  0  0  0  0
   -2.4047    1.0115   12.3721 O   0  0  0  0  0  0
   -1.9324    1.9291   11.3956 C   0  0  0  0  0  0
   -4.9716   -1.7274   14.9510 H   0  0  0  0  0  0
   -3.5934   -2.7830   14.6797 H   0  0  0  0  0  0
   -3.5705   -1.5889   16.0006 H   0  0  0  0  0  0
   -1.4166   -2.2698   15.3830 H   0  0  0  0  0  0
    0.9805   -1.9675   15.1255 H   0  0  0  0  0  0
    2.7093   -0.9713   14.1180 H   0  0  0  0  0  0
    5.2723    4.0060   13.3783 H   0  0  0  0  0  0
    6.9180    2.5864   15.0113 H   0  0  0  0  0  0
    6.7004    0.0208   16.0665 H   0  0  0  0  0  0
    3.2259    5.6401   13.5006 H   0  0  0  0  0  0
    2.4128    7.5375   12.1764 H   0  0  0  0  0  0
    1.7393    9.5142    9.2841 H   0  0  0  0  0  0
    2.7477    8.8258   10.5383 H   0  0  0  0  0  0
    2.4280    2.9753   10.2123 H   0  0  0  0  0  0
    0.3257    1.1315   12.2199 H   0  0  0  0  0  0
   -2.7822    2.4117   10.9131 H   0  0  0  0  0  0
   -1.3209    2.7136   11.8461 H   0  0  0  0  0  0
   -1.3556    1.4235   10.6188 H   0  0  0  0  0  0
  1  2  1  0  0  0
  1 31  1  0  0  0
  1 32  1  0  0  0
  1 33  1  0  0  0
  2  3  1  0  0  0
  3  4  2  0  0  0
  3 28  1  0  0  0
  4  5  1  0  0  0
  4 34  1  0  0  0
  5  6  2  0  0  0
  5 35  1  0  0  0
  6  7  1  0  0  0
  6 27  1  0  0  0
  7  8  1  0  0  0
  7 36  1  0  0  0
  8  9  2  0  0  0
  8 16  1  0  0  0
  9 10  1  0  0  0
 10 11  2  0  0  0
 10 17  1  0  0  0
 11 12  1  0  0  0
 11 37  1  0  0  0
 12 13  1  0  0  0
 12 16  1  0  0  0
 13 14  2  0  0  0
 13 38  1  0  0  0
 14 15  1  0  0  0
 14 39  1  0  0  0
 15 16  2  0  0  0
 17 18  2  0  0  0
 17 26  1  0  0  0
 18 19  1  0  0  0
 18 40  1  0  0  0
 19 20  2  0  0  0
 19 41  1  0  0  0
 20 21  1  0  0  0
 20 24  1  0  0  0
 21 22  2  0  0  0
 21 23  1  0  0  0
 23 42  1  0  0  0
 23 43  1  0  0  0
 24 25  1  0  0  0
 24 26  2  0  0  0
 26 44  1  0  0  0
 27 28  2  0  0  0
 27 45  1  0  0  0
 28 29  1  0  0  0
 29 30  1  0  0  0
 30 46  1  0  0  0
 30 47  1  0  0  0
 30 48  1  0  0  0
M  END
> <s_m_entry_id>
685

> <IC50[nM]>
18.6

> <s_m_Source_Path>
/projects/mai/users/kmzp800_harry/pmx_colab/docking_jobs/syk

> <s_m_Source_File>
tnks2_lig.sdf

> <i_m_Source_File_Index>
6

> <s_m_job_name>
glide-dock_SP_tnks2_no_const

> <r_i_docking_score>
-6.982923102328

> <r_i_glide_gscore>
-6.982923102328

> <r_i_glide_emodel>
-66.9851828722724

$$$$
CHEMBL3265004
                    3D
 Schrodinger Suite 2021-4.
 65 70  0  0  1  0            999 V2000
   -4.1365   -2.1660   15.3010 C   0  0  0  0  0  0
   -3.5527   -1.2655   14.3690 O   0  0  0  0  0  0
   -2.1747   -1.1955   14.3074 C   0  0  0  0  0  0
   -1.3122   -2.0028   15.0876 C   0  0  0  0  0  0
    0.0811   -1.8386   15.0174 C   0  0  0  0  0  0
    0.6559   -0.8784   14.1612 C   0  0  0  0  0  0
    2.0602   -0.7804   14.1775 N   0  0  0  0  0  0
    2.9117    0.2920   13.8579 C   0  0  0  0  0  0
    2.5340    1.2076   13.0175 N   0  0  0  0  0  0
    3.3768    2.2527   12.7221 C   0  0  0  0  0  0
    4.6093    2.4052   13.3111 C   0  0  0  0  0  0
    4.9892    1.4681   14.2170 N   0  0  0  0  0  0
    6.1127    1.3540   15.0165 C   0  0  0  0  0  0
    5.9621    0.2122   15.7560 C   0  0  0  0  0  0
    4.7482   -0.3960   15.4619 N   0  0  0  0  0  0
    4.1716    0.3589   14.5240 C   0  0  0  0  0  0
    2.8840    3.1804   11.6850 C   0  0  0  0  0  0
    3.7800    3.7416   10.7506 C   0  0  0  0  0  0
    3.3213    4.5838    9.7241 C   0  0  0  0  0  0
    1.9528    4.8782    9.6117 C   0  0  0  0  0  0
    1.0377    4.3501   10.5453 C   0  0  0  0  0  0
    1.5114    3.5080   11.5775 C   0  0  0  0  0  0
   -0.4252    4.6377   10.3912 C   0  0  0  0  0  0
   -0.9163    4.7148    9.2668 O   0  0  0  0  0  0
   -1.0887    4.8496   11.5448 N   0  0  0  0  0  0
   -2.4699    5.1309   11.7469 C   0  0  0  0  0  0
   -3.4645    4.9419   10.7601 C   0  0  0  0  0  0
   -4.8080    5.2631   11.0294 C   0  0  0  0  0  0
   -5.2006    5.7633   12.2903 C   0  0  0  0  0  0
   -4.2071    5.9160   13.2848 C   0  0  0  0  0  0
   -2.8589    5.6039   13.0175 C   0  0  0  0  0  0
   -6.6105    6.1121   12.5560 C   0  0  0  0  0  0
   -7.2032    6.4041   13.8176 C   0  0  0  0  0  0
   -8.4943    6.6798   13.7131 N   0  0  0  0  0  0
   -8.7472    6.5526   12.3932 N   0  0  0  0  0  0
   -7.6344    6.2107   11.6567 C   0  0  0  0  0  0
   -0.2038   -0.1057   13.3443 C   0  0  0  0  0  0
   -1.6152   -0.2510   13.4177 C   0  0  0  0  0  0
   -2.5052    0.4929   12.6677 O   0  0  0  0  0  0
   -1.9832    1.3407   11.6536 C   0  0  0  0  0  0
   -5.2214   -2.0911   15.2469 H   0  0  0  0  0  0
   -3.8677   -3.1975   15.0745 H   0  0  0  0  0  0
   -3.8434   -1.9335   16.3257 H   0  0  0  0  0  0
   -1.6935   -2.7442   15.7728 H   0  0  0  0  0  0
    0.7121   -2.4536   15.6441 H   0  0  0  0  0  0
    2.5081   -1.4354   14.8040 H   0  0  0  0  0  0
    5.2891    3.2279   13.1184 H   0  0  0  0  0  0
    6.8984    2.0928   14.9707 H   0  0  0  0  0  0
    6.6265   -0.2155   16.4910 H   0  0  0  0  0  0
    4.8311    3.5047   10.8023 H   0  0  0  0  0  0
    4.0263    4.9917    9.0178 H   0  0  0  0  0  0
    1.6101    5.5137    8.8072 H   0  0  0  0  0  0
    0.8138    3.0794   12.2838 H   0  0  0  0  0  0
   -0.5157    4.8584   12.3757 H   0  0  0  0  0  0
   -3.2297    4.5522    9.7817 H   0  0  0  0  0  0
   -5.5372    5.1189   10.2459 H   0  0  0  0  0  0
   -4.4661    6.2839   14.2669 H   0  0  0  0  0  0
   -2.1208    5.7445   13.7952 H   0  0  0  0  0  0
   -6.7464    6.4047   14.7966 H   0  0  0  0  0  0
   -9.6745    6.6906   12.0174 H   0  0  0  0  0  0
   -7.6720    6.0735   10.5855 H   0  0  0  0  0  0
    0.2171    0.6027   12.6539 H   0  0  0  0  0  0
   -2.8084    1.7998   11.1066 H   0  0  0  0  0  0
   -1.3843    2.1415   12.0844 H   0  0  0  0  0  0
   -1.3811    0.7835   10.9345 H   0  0  0  0  0  0
  1  2  1  0  0  0
  1 41  1  0  0  0
  1 42  1  0  0  0
  1 43  1  0  0  0
  2  3  1  0  0  0
  3  4  2  0  0  0
  3 38  1  0  0  0
  4  5  1  0  0  0
  4 44  1  0  0  0
  5  6  2  0  0  0
  5 45  1  0  0  0
  6  7  1  0  0  0
  6 37  1  0  0  0
  7  8  1  0  0  0
  7 46  1  0  0  0
  8  9  2  0  0  0
  8 16  1  0  0  0
  9 10  1  0  0  0
 10 11  2  0  0  0
 10 17  1  0  0  0
 11 12  1  0  0  0
 11 47  1  0  0  0
 12 13  1  0  0  0
 12 16  1  0  0  0
 13 14  2  0  0  0
 13 48  1  0  0  0
 14 15  1  0  0  0
 14 49  1  0  0  0
 15 16  2  0  0  0
 17 18  2  0  0  0
 17 22  1  0  0  0
 18 19  1  0  0  0
 18 50  1  0  0  0
 19 20  2  0  0  0
 19 51  1  0  0  0
 20 21  1  0  0  0
 20 52  1  0  0  0
 21 22  2  0  0  0
 21 23  1  0  0  0
 22 53  1  0  0  0
 23 24  2  0  0  0
 23 25  1  0  0  0
 25 26  1  0  0  0
 25 54  1  0  0  0
 26 27  2  0  0  0
 26 31  1  0  0  0
 27 28  1  0  0  0
 27 55  1  0  0  0
 28 29  2  0  0  0
 28 56  1  0  0  0
 29 30  1  0  0  0
 29 32  1  0  0  0
 30 31  2  0  0  0
 30 57  1  0  0  0
 31 58  1  0  0  0
 32 33  1  0  0  0
 32 36  2  0  0  0
 33 34  2  0  0  0
 33 59  1  0  0  0
 34 35  1  0  0  0
 35 36  1  0  0  0
 35 60  1  0  0  0
 36 61  1  0  0  0
 37 38  2  0  0  0
 37 62  1  0  0  0
 38 39  1  0  0  0
 39 40  1  0  0  0
 40 63  1  0  0  0
 40 64  1  0  0  0
 40 65  1  0  0  0
M  END
> <s_m_entry_id>
686

> <IC50[nM]>
11

> <s_m_Source_Path>
/projects/mai/users/kmzp800_harry/pmx_colab/docking_jobs/syk

> <s_m_Source_File>
tnks2_lig.sdf

> <i_m_Source_File_Index>
7

> <s_m_job_name>
glide-dock_SP_tnks2_no_const

> <r_i_docking_score>
-6.60000892496955

> <r_i_glide_gscore>
-6.60000892496955

> <r_i_glide_emodel>
-79.8177800851746

$$$$
CHEMBL3265031
                    3D
 Schrodinger Suite 2021-4.
 58 63  0  0  1  0            999 V2000
   -7.0263   -4.1730   16.0820 C   0  0  0  0  0  0
   -6.4212   -2.7590   16.0283 C   0  0  0  0  0  0
   -7.4713   -1.8590   16.3357 O   0  0  0  0  0  0
   -5.2981   -2.5581   17.0691 C   0  0  0  0  0  0
   -4.0015   -3.2993   16.6937 C   0  0  0  0  0  0
   -3.6011   -2.9532   15.3316 N   0  0  0  0  0  0
   -4.5915   -3.1459   14.2764 C   0  0  0  0  0  0
   -5.8891   -2.3947   14.6250 C   0  0  0  0  0  0
   -2.3289   -2.4093   15.0686 C   0  0  0  0  0  0
   -1.1964   -2.8490   15.7906 C   0  0  0  0  0  0
    0.0760   -2.3109   15.5271 C   0  0  0  0  0  0
    0.2535   -1.3170   14.5458 C   0  0  0  0  0  0
    1.5640   -0.8570   14.3262 N   0  0  0  0  0  0
    2.0454    0.3645   13.8266 C   0  0  0  0  0  0
    1.2271    1.2341   13.3060 N   0  0  0  0  0  0
    1.7057    2.4585   12.8992 C   0  0  0  0  0  0
    3.0335    2.8005   12.9709 C   0  0  0  0  0  0
    3.8807    1.9041   13.5359 N   0  0  0  0  0  0
    5.2302    1.9691   13.8186 C   0  0  0  0  0  0
    5.5469    0.8132   14.4790 C   0  0  0  0  0  0
    4.4271    0.0041   14.6171 N   0  0  0  0  0  0
    3.4326    0.6479   14.0005 C   0  0  0  0  0  0
    0.6919    3.4252   12.4356 C   0  0  0  0  0  0
   -0.4130    3.0191   11.6508 C   0  0  0  0  0  0
   -1.3716    3.9482   11.1943 C   0  0  0  0  0  0
   -1.2559    5.3190   11.5180 C   0  0  0  0  0  0
   -1.9774    6.5281   11.2559 C   0  0  0  0  0  0
   -1.4053    7.5666   11.8173 N   0  0  0  0  0  0
   -0.3153    7.0775   12.4636 N   0  0  0  0  0  0
   -0.1507    5.7115   12.3177 C   0  0  0  0  0  0
    0.8099    4.7930   12.7709 C   0  0  0  0  0  0
   -0.8768   -0.8786   13.8174 C   0  0  0  0  0  0
   -2.1515   -1.4150   14.0810 C   0  0  0  0  0  0
   -6.2848   -4.9395   15.8608 H   0  0  0  0  0  0
   -7.8385   -4.2842   15.3624 H   0  0  0  0  0  0
   -7.4328   -4.3924   17.0703 H   0  0  0  0  0  0
   -7.7905   -2.0687   17.2045 H   0  0  0  0  0  0
   -5.0669   -1.4950   17.1569 H   0  0  0  0  0  0
   -5.6286   -2.8760   18.0586 H   0  0  0  0  0  0
   -3.2293   -3.0410   17.4170 H   0  0  0  0  0  0
   -4.1411   -4.3790   16.7598 H   0  0  0  0  0  0
   -4.2192   -2.8355   13.3000 H   0  0  0  0  0  0
   -4.7912   -4.2132   14.1899 H   0  0  0  0  0  0
   -6.6490   -2.5829   13.8669 H   0  0  0  0  0  0
   -5.6794   -1.3250   14.6036 H   0  0  0  0  0  0
   -1.2849   -3.6154   16.5471 H   0  0  0  0  0  0
    0.9196   -2.6743   16.0970 H   0  0  0  0  0  0
    2.2859   -1.3842   14.7980 H   0  0  0  0  0  0
    3.4389    3.7566   12.6607 H   0  0  0  0  0  0
    5.8121    2.8375   13.5471 H   0  0  0  0  0  0
    6.5026    0.5028   14.8796 H   0  0  0  0  0  0
   -0.5227    1.9772   11.3858 H   0  0  0  0  0  0
   -2.1972    3.6106   10.5855 H   0  0  0  0  0  0
   -2.8786    6.6653   10.6774 H   0  0  0  0  0  0
    0.3083    7.6942   12.9770 H   0  0  0  0  0  0
    1.6281    5.1418   13.3836 H   0  0  0  0  0  0
   -0.7911   -0.1469   13.0315 H   0  0  0  0  0  0
   -2.9884   -1.0509   13.5075 H   0  0  0  0  0  0
  1  2  1  0  0  0
  1 34  1  0  0  0
  1 35  1  0  0  0
  1 36  1  0  0  0
  2  3  1  0  0  0
  2  4  1  0  0  0
  2  8  1  0  0  0
  3 37  1  0  0  0
  4  5  1  0  0  0
  4 38  1  0  0  0
  4 39  1  0  0  0
  5  6  1  0  0  0
  5 40  1  0  0  0
  5 41  1  0  0  0
  6  7  1  0  0  0
  6  9  1  0  0  0
  7  8  1  0  0  0
  7 42  1  0  0  0
  7 43  1  0  0  0
  8 44  1  0  0  0
  8 45  1  0  0  0
  9 10  2  0  0  0
  9 33  1  0  0  0
 10 11  1  0  0  0
 10 46  1  0  0  0
 11 12  2  0  0  0
 11 47  1  0  0  0
 12 13  1  0  0  0
 12 32  1  0  0  0
 13 14  1  0  0  0
 13 48  1  0  0  0
 14 15  2  0  0  0
 14 22  1  0  0  0
 15 16  1  0  0  0
 16 17  2  0  0  0
 16 23  1  0  0  0
 17 18  1  0  0  0
 17 49  1  0  0  0
 18 19  1  0  0  0
 18 22  1  0  0  0
 19 20  2  0  0  0
 19 50  1  0  0  0
 20 21  1  0  0  0
 20 51  1  0  0  0
 21 22  2  0  0  0
 23 24  2  0  0  0
 23 31  1  0  0  0
 24 25  1  0  0  0
 24 52  1  0  0  0
 25 26  2  0  0  0
 25 53  1  0  0  0
 26 27  1  0  0  0
 26 30  1  0  0  0
 27 28  2  0  0  0
 27 54  1  0  0  0
 28 29  1  0  0  0
 29 30  1  0  0  0
 29 55  1  0  0  0
 30 31  2  0  0  0
 31 56  1  0  0  0
 32 33  2  0  0  0
 32 57  1  0  0  0
 33 58  1  0  0  0
M  END
> <s_m_entry_id>
687

> <IC50[nM]>
1.4

> <s_m_Source_Path>
/projects/mai/users/kmzp800_harry/pmx_colab/docking_jobs/syk

> <s_m_Source_File>
tnks2_lig.sdf

> <i_m_Source_File_Index>
8

> <s_m_job_name>
glide-dock_SP_tnks2_no_const

> <r_i_docking_score>
-6.53468617535881

> <r_i_glide_gscore>
-6.53468617535881

> <r_i_glide_emodel>
-70.6435609707472

$$$$
CHEMBL3265005
                    3D
 Schrodinger Suite 2021-4.
 48 51  0  0  1  0            999 V2000
    7.2703    4.8205   12.6730 C   0  0  0  0  0  0
    6.5456    4.4041   13.8174 O   0  0  0  0  0  0
    5.6300    3.4037   13.6147 C   0  0  0  0  0  0
    5.8130    2.2167   14.3436 C   0  0  0  0  0  0
    4.9128    1.1508   14.2174 C   0  0  0  0  0  0
    3.7715    1.2795   13.4115 C   0  0  0  0  0  0
    2.8664    0.2087   13.4176 N   0  0  0  0  0  0
    1.4663    0.2486   13.4434 C   0  0  0  0  0  0
    0.8381    1.2303   12.8683 N   0  0  0  0  0  0
   -0.5321    1.2393   12.8601 C   0  0  0  0  0  0
   -1.2944    0.2406   13.4173 C   0  0  0  0  0  0
   -0.6351   -0.7569   14.0651 N   0  0  0  0  0  0
   -1.0862   -1.8566   14.7717 C   0  0  0  0  0  0
    0.0267   -2.5079   15.2292 C   0  0  0  0  0  0
    1.1818   -1.8603   14.8100 N   0  0  0  0  0  0
    0.7767   -0.7995   14.1136 C   0  0  0  0  0  0
   -1.1376    2.4193   12.2250 C   0  0  0  0  0  0
   -2.1369    2.2784   11.2409 C   0  0  0  0  0  0
   -2.7071    3.4135   10.6345 C   0  0  0  0  0  0
   -2.2816    4.7006   11.0124 C   0  0  0  0  0  0
   -1.2879    4.8692   12.0040 C   0  0  0  0  0  0
   -0.7291    3.7182   12.6057 C   0  0  0  0  0  0
   -0.8911    6.2566   12.4345 C   0  0  0  0  0  0
   -1.6297    7.2112   12.2171 O   0  0  0  0  0  0
    0.3025    6.4024   13.0133 N   0  0  0  0  0  0
    3.6027    2.4575   12.6421 C   0  0  0  0  0  0
    4.5247    3.5329   12.7386 C   0  0  0  0  0  0
    4.3944    4.7154   12.0387 O   0  0  0  0  0  0
    3.2213    4.9184   11.2590 C   0  0  0  0  0  0
    8.2215    5.2334   13.0135 H   0  0  0  0  0  0
    7.4986    4.0041   11.9878 H   0  0  0  0  0  0
    6.7422    5.6035   12.1203 H   0  0  0  0  0  0
    6.6664    2.1208   15.0008 H   0  0  0  0  0  0
    5.0774    0.2513   14.7962 H   0  0  0  0  0  0
    3.2030   -0.6080   13.9091 H   0  0  0  0  0  0
   -2.3742    0.2179   13.4128 H   0  0  0  0  0  0
   -2.1405   -2.0504   14.8874 H   0  0  0  0  0  0
    0.0908   -3.4053   15.8298 H   0  0  0  0  0  0
   -2.4617    1.2932   10.9359 H   0  0  0  0  0  0
   -3.4666    3.3021    9.8736 H   0  0  0  0  0  0
   -2.7303    5.5640   10.5406 H   0  0  0  0  0  0
    0.0182    3.8169   13.3787 H   0  0  0  0  0  0
    0.6180    7.3166   13.3234 H   0  0  0  0  0  0
    0.8936    5.6018   13.1651 H   0  0  0  0  0  0
    2.7608    2.5273   11.9738 H   0  0  0  0  0  0
    3.2279    5.9351   10.8631 H   0  0  0  0  0  0
    3.1795    4.2314   10.4120 H   0  0  0  0  0  0
    2.3177    4.8053   11.8600 H   0  0  0  0  0  0
  1  2  1  0  0  0
  1 30  1  0  0  0
  1 31  1  0  0  0
  1 32  1  0  0  0
  2  3  1  0  0  0
  3  4  2  0  0  0
  3 27  1  0  0  0
  4  5  1  0  0  0
  4 33  1  0  0  0
  5  6  2  0  0  0
  5 34  1  0  0  0
  6  7  1  0  0  0
  6 26  1  0  0  0
  7  8  1  0  0  0
  7 35  1  0  0  0
  8  9  2  0  0  0
  8 16  1  0  0  0
  9 10  1  0  0  0
 10 11  2  0  0  0
 10 17  1  0  0  0
 11 12  1  0  0  0
 11 36  1  0  0  0
 12 13  1  0  0  0
 12 16  1  0  0  0
 13 14  2  0  0  0
 13 37  1  0  0  0
 14 15  1  0  0  0
 14 38  1  0  0  0
 15 16  2  0  0  0
 17 18  2  0  0  0
 17 22  1  0  0  0
 18 19  1  0  0  0
 18 39  1  0  0  0
 19 20  2  0  0  0
 19 40  1  0  0  0
 20 21  1  0  0  0
 20 41  1  0  0  0
 21 22  2  0  0  0
 21 23  1  0  0  0
 22 42  1  0  0  0
 23 24  2  0  0  0
 23 25  1  0  0  0
 25 43  1  0  0  0
 25 44  1  0  0  0
 26 27  2  0  0  0
 26 45  1  0  0  0
 27 28  1  0  0  0
 28 29  1  0  0  0
 29 46  1  0  0  0
 29 47  1  0  0  0
 29 48  1  0  0  0
M  END
> <s_m_entry_id>
688

> <IC50[nM]>
27.1

> <s_m_Source_Path>
/projects/mai/users/kmzp800_harry/pmx_colab/docking_jobs/syk

> <s_m_Source_File>
tnks2_lig.sdf

> <i_m_Source_File_Index>
9

> <s_m_job_name>
glide-dock_SP_tnks2_no_const

> <r_i_docking_score>
-6.93531771318747

> <r_i_glide_gscore>
-6.93531771318747

> <r_i_glide_emodel>
-67.933830034332

$$$$
CHEMBL3265024
                    3D
 Schrodinger Suite 2021-4.
 50 54  0  0  1  0            999 V2000
    2.7171    7.4714    8.1569 C   0  0  0  0  0  0
    3.6296    6.7859    8.9995 O   0  0  0  0  0  0
    3.1146    5.8594    9.8803 C   0  0  0  0  0  0
    1.8325    5.2715    9.7430 C   0  0  0  0  0  0
    1.3747    4.3289   10.6820 C   0  0  0  0  0  0
    2.1587    3.9960   11.8051 C   0  0  0  0  0  0
    1.6190    3.1025   12.7443 N   0  0  0  0  0  0
    2.1443    1.9076   13.2687 C   0  0  0  0  0  0
    1.2054    1.0435   13.5392 N   0  0  0  0  0  0
    1.5120   -0.1600   14.1326 C   0  0  0  0  0  0
    2.8037   -0.5118   14.4408 C   0  0  0  0  0  0
    3.7795    0.4042   14.2174 N   0  0  0  0  0  0
    5.1104    0.4054   14.5954 C   0  0  0  0  0  0
    5.6280    1.5949   14.1859 C   0  0  0  0  0  0
    4.6647    2.3374   13.5216 N   0  0  0  0  0  0
    3.5219    1.6525   13.5977 C   0  0  0  0  0  0
    0.3600   -1.0299   14.4832 C   0  0  0  0  0  0
    0.4749   -2.0116   15.4976 C   0  0  0  0  0  0
   -0.5944   -2.8650   15.8253 C   0  0  0  0  0  0
   -1.8220   -2.7451   15.1565 C   0  0  0  0  0  0
   -2.8584   -3.6019   15.4476 O   0  0  0  0  0  0
   -4.1836   -3.1563   15.1294 C   0  0  0  0  0  0
   -4.2575   -2.3952   13.7924 C   0  0  0  0  0  0
   -5.2988   -2.3637   13.1393 O   0  0  0  0  0  0
   -3.1662   -1.7174   13.4170 N   0  0  0  0  0  0
   -1.9609   -1.7716   14.1477 C   0  0  0  0  0  0
   -0.8854   -0.9204   13.8169 C   0  0  0  0  0  0
    3.4061    4.6321   11.9675 C   0  0  0  0  0  0
    3.9287    5.4890   10.9706 C   0  0  0  0  0  0
    5.2099    5.9979   11.0182 O   0  0  0  0  0  0
    6.1430    5.3291   11.8601 C   0  0  0  0  0  0
    3.2443    8.2584    7.6178 H   0  0  0  0  0  0
    1.9205    7.9418    8.7352 H   0  0  0  0  0  0
    2.2785    6.8037    7.4177 H   0  0  0  0  0  0
    1.1896    5.5138    8.9113 H   0  0  0  0  0  0
    0.4015    3.8785   10.5442 H   0  0  0  0  0  0
    0.6150    3.0350   12.6787 H   0  0  0  0  0  0
    3.0968   -1.4387   14.9219 H   0  0  0  0  0  0
    5.5415   -0.4047   15.1555 H   0  0  0  0  0  0
    6.6315    1.9756   14.3075 H   0  0  0  0  0  0
    1.3914   -2.1296   16.0559 H   0  0  0  0  0  0
   -0.4734   -3.6069   16.6005 H   0  0  0  0  0  0
   -4.8488   -4.0205   15.0938 H   0  0  0  0  0  0
   -4.5410   -2.5063   15.9310 H   0  0  0  0  0  0
   -3.1779   -1.1964   12.5501 H   0  0  0  0  0  0
   -1.0084   -0.1980   13.0223 H   0  0  0  0  0  0
    3.9590    4.4930   12.8758 H   0  0  0  0  0  0
    7.1590    5.6090   11.5885 H   0  0  0  0  0  0
    5.9882    5.6020   12.9027 H   0  0  0  0  0  0
    6.0825    4.2438   11.7657 H   0  0  0  0  0  0
  1  2  1  0  0  0
  1 32  1  0  0  0
  1 33  1  0  0  0
  1 34  1  0  0  0
  2  3  1  0  0  0
  3  4  2  0  0  0
  3 29  1  0  0  0
  4  5  1  0  0  0
  4 35  1  0  0  0
  5  6  2  0  0  0
  5 36  1  0  0  0
  6  7  1  0  0  0
  6 28  1  0  0  0
  7  8  1  0  0  0
  7 37  1  0  0  0
  8  9  2  0  0  0
  8 16  1  0  0  0
  9 10  1  0  0  0
 10 11  2  0  0  0
 10 17  1  0  0  0
 11 12  1  0  0  0
 11 38  1  0  0  0
 12 13  1  0  0  0
 12 16  1  0  0  0
 13 14  2  0  0  0
 13 39  1  0  0  0
 14 15  1  0  0  0
 14 40  1  0  0  0
 15 16  2  0  0  0
 17 18  2  0  0  0
 17 27  1  0  0  0
 18 19  1  0  0  0
 18 41  1  0  0  0
 19 20  2  0  0  0
 19 42  1  0  0  0
 20 21  1  0  0  0
 20 26  1  0  0  0
 21 22  1  0  0  0
 22 23  1  0  0  0
 22 43  1  0  0  0
 22 44  1  0  0  0
 23 24  2  0  0  0
 23 25  1  0  0  0
 25 26  1  0  0  0
 25 45  1  0  0  0
 26 27  2  0  0  0
 27 46  1  0  0  0
 28 29  2  0  0  0
 28 47  1  0  0  0
 29 30  1  0  0  0
 30 31  1  0  0  0
 31 48  1  0  0  0
 31 49  1  0  0  0
 31 50  1  0  0  0
M  END
> <s_m_entry_id>
689

> <IC50[nM]>
2.3

> <s_m_Source_Path>
/projects/mai/users/kmzp800_harry/pmx_colab/docking_jobs/syk

> <s_m_Source_File>
tnks2_lig.sdf

> <i_m_Source_File_Index>
10

> <s_m_job_name>
glide-dock_SP_tnks2_no_const

> <r_i_docking_score>
-5.9607631949809

> <r_i_glide_gscore>
-5.9607631949809

> <r_i_glide_emodel>
-60.0962227478924

$$$$
CHEMBL3265010
                    3D
 Schrodinger Suite 2021-4.
 52 55  0  0  1  0            999 V2000
    2.0890    6.1808   12.5056 C   0  0  0  0  0  0
    1.2440    5.6249   11.5066 O   0  0  0  0  0  0
    0.5510    4.4710   11.8101 C   0  0  0  0  0  0
    0.5661    3.8729   13.0941 C   0  0  0  0  0  0
   -0.1430    2.6865   13.3334 C   0  0  0  0  0  0
   -0.8798    2.0678   12.3044 C   0  0  0  0  0  0
   -1.5553    0.8605   12.5211 N   0  0  0  0  0  0
   -1.1993   -0.1552   13.4188 C   0  0  0  0  0  0
   -2.1997   -0.8216   13.9260 N   0  0  0  0  0  0
   -1.9410   -1.8222   14.8354 C   0  0  0  0  0  0
   -0.6723   -2.1645   15.2344 C   0  0  0  0  0  0
    0.3647   -1.4908   14.6808 N   0  0  0  0  0  0
    1.7284   -1.5939   14.8782 C   0  0  0  0  0  0
    2.3129   -0.6747   14.0552 C   0  0  0  0  0  0
    1.3506    0.0162   13.3337 N   0  0  0  0  0  0
    0.1663   -0.4593   13.7350 C   0  0  0  0  0  0
   -3.1139   -2.5160   15.3999 C   0  0  0  0  0  0
   -3.0934   -3.9150   15.5696 C   0  0  0  0  0  0
   -4.1786   -4.5910   16.1537 C   0  0  0  0  0  0
   -5.3241   -3.8797   16.5887 C   0  0  0  0  0  0
   -6.4143   -4.4907   17.1775 O   0  0  0  0  0  0
   -6.3948   -5.9033   17.3341 C   0  0  0  0  0  0
   -5.3518   -2.4744   16.4236 C   0  0  0  0  0  0
   -4.2585   -1.8072   15.8282 C   0  0  0  0  0  0
   -6.5290   -1.6761   16.8926 C   0  0  0  0  0  0
   -7.5539   -1.5871   16.2176 O   0  0  0  0  0  0
   -6.3695   -1.0687   18.0691 N   0  0  0  0  0  0
   -0.9364    2.6834   11.0388 C   0  0  0  0  0  0
   -0.2121    3.8751   10.7777 C   0  0  0  0  0  0
   -0.1874    4.4933    9.5419 O   0  0  0  0  0  0
   -0.8576    3.8658    8.4570 C   0  0  0  0  0  0
    2.5225    7.1143   12.1437 H   0  0  0  0  0  0
    1.5352    6.4050   13.4184 H   0  0  0  0  0  0
    2.9102    5.5036   12.7469 H   0  0  0  0  0  0
    1.1250    4.2917   13.9183 H   0  0  0  0  0  0
   -0.1029    2.2537   14.3256 H   0  0  0  0  0  0
   -2.3679    0.6750   11.9519 H   0  0  0  0  0  0
   -0.4431   -2.9306   15.9664 H   0  0  0  0  0  0
    2.1243   -2.3168   15.5784 H   0  0  0  0  0  0
    3.3599   -0.4573   13.9161 H   0  0  0  0  0  0
   -2.2278   -4.4818   15.2614 H   0  0  0  0  0  0
   -4.0994   -5.6606   16.2672 H   0  0  0  0  0  0
   -7.3259   -6.2216   17.8023 H   0  0  0  0  0  0
   -6.3202   -6.4120   16.3717 H   0  0  0  0  0  0
   -5.5753   -6.2248   17.9787 H   0  0  0  0  0  0
   -4.2869   -0.7334   15.7237 H   0  0  0  0  0  0
   -7.1400   -0.5601   18.4753 H   0  0  0  0  0  0
   -5.5024   -1.1952   18.5835 H   0  0  0  0  0  0
   -1.5192    2.2073   10.2693 H   0  0  0  0  0  0
   -0.6668    4.4362    7.5495 H   0  0  0  0  0  0
   -0.4965    2.8513    8.2846 H   0  0  0  0  0  0
   -1.9376    3.8409    8.6103 H   0  0  0  0  0  0
  1  2  1  0  0  0
  1 32  1  0  0  0
  1 33  1  0  0  0
  1 34  1  0  0  0
  2  3  1  0  0  0
  3  4  2  0  0  0
  3 29  1  0  0  0
  4  5  1  0  0  0
  4 35  1  0  0  0
  5  6  2  0  0  0
  5 36  1  0  0  0
  6  7  1  0  0  0
  6 28  1  0  0  0
  7  8  1  0  0  0
  7 37  1  0  0  0
  8  9  2  0  0  0
  8 16  1  0  0  0
  9 10  1  0  0  0
 10 11  2  0  0  0
 10 17  1  0  0  0
 11 12  1  0  0  0
 11 38  1  0  0  0
 12 13  1  0  0  0
 12 16  1  0  0  0
 13 14  2  0  0  0
 13 39  1  0  0  0
 14 15  1  0  0  0
 14 40  1  0  0  0
 15 16  2  0  0  0
 17 18  2  0  0  0
 17 24  1  0  0  0
 18 19  1  0  0  0
 18 41  1  0  0  0
 19 20  2  0  0  0
 19 42  1  0  0  0
 20 21  1  0  0  0
 20 23  1  0  0  0
 21 22  1  0  0  0
 22 43  1  0  0  0
 22 44  1  0  0  0
 22 45  1  0  0  0
 23 24  2  0  0  0
 23 25  1  0  0  0
 24 46  1  0  0  0
 25 26  2  0  0  0
 25 27  1  0  0  0
 27 47  1  0  0  0
 27 48  1  0  0  0
 28 29  2  0  0  0
 28 49  1  0  0  0
 29 30  1  0  0  0
 30 31  1  0  0  0
 31 50  1  0  0  0
 31 51  1  0  0  0
 31 52  1  0  0  0
M  END
> <s_m_entry_id>
690

> <IC50[nM]>
37.4

> <s_m_Source_Path>
/projects/mai/users/kmzp800_harry/pmx_colab/docking_jobs/syk

> <s_m_Source_File>
tnks2_lig.sdf

> <i_m_Source_File_Index>
11

> <s_m_job_name>
glide-dock_SP_tnks2_no_const

> <r_i_docking_score>
-6.58904590566601

> <r_i_glide_gscore>
-6.58904590566601

> <r_i_glide_emodel>
-70.1618451058052

$$$$
CHEMBL3265014
                    3D
 Schrodinger Suite 2021-4.
 52 55  0  0  1  0            999 V2000
   -4.5422    5.9881   13.8277 C   0  0  0  0  0  0
   -4.0053    6.0091   12.5114 O   0  0  0  0  0  0
   -2.6633    5.7269   12.3377 C   0  0  0  0  0  0
   -1.7673    5.5117   13.4132 C   0  0  0  0  0  0
   -0.4210    5.1875   13.1712 C   0  0  0  0  0  0
    0.0615    5.0969   11.8526 C   0  0  0  0  0  0
    1.4055    4.7975   11.5953 N   0  0  0  0  0  0
    2.2052    3.8684   12.2744 C   0  0  0  0  0  0
    1.6380    2.7912   12.7395 N   0  0  0  0  0  0
    2.3853    1.8384   13.3986 C   0  0  0  0  0  0
    3.7395    2.0089   13.6074 C   0  0  0  0  0  0
    4.3278    3.1423   13.1339 N   0  0  0  0  0  0
    5.6297    3.6041   13.2037 C   0  0  0  0  0  0
    5.6661    4.7794   12.5031 C   0  0  0  0  0  0
    4.4087    5.0917   12.0005 N   0  0  0  0  0  0
    3.6001    4.1131   12.4123 C   0  0  0  0  0  0
    1.6279    0.6356   13.8660 C   0  0  0  0  0  0
    2.2393   -0.3962   14.6169 C   0  0  0  0  0  0
    1.5010   -1.4916   15.1075 C   0  0  0  0  0  0
    0.1180   -1.6113   14.8487 C   0  0  0  0  0  0
   -0.6481   -2.8051   15.3681 C   0  0  0  0  0  0
   -1.5092   -3.3657   14.6950 O   0  0  0  0  0  0
   -0.3700   -3.1960   16.6170 N   0  0  0  0  0  0
   -0.5139   -0.6189   14.0571 C   0  0  0  0  0  0
   -1.8639   -0.7449   13.7949 O   0  0  0  0  0  0
   -2.4380    0.0721   12.7867 C   0  0  0  0  0  0
    0.2454    0.4848   13.5894 C   0  0  0  0  0  0
   -0.8128    5.3504   10.7775 C   0  0  0  0  0  0
   -2.1813    5.6528   11.0101 C   0  0  0  0  0  0
   -3.0943    5.8803   10.0012 O   0  0  0  0  0  0
   -2.6601    5.7479    8.6536 C   0  0  0  0  0  0
   -5.6219    6.1247   13.7717 H   0  0  0  0  0  0
   -4.3630    5.0339   14.3260 H   0  0  0  0  0  0
   -4.1418    6.7974   14.4375 H   0  0  0  0  0  0
   -2.0913    5.5850   14.4398 H   0  0  0  0  0  0
    0.2409    5.0264   14.0109 H   0  0  0  0  0  0
    1.9334    5.5286   11.1372 H   0  0  0  0  0  0
    4.3821    1.3114   14.1327 H   0  0  0  0  0  0
    6.3909    3.0450   13.7255 H   0  0  0  0  0  0
    6.5090    5.4289   12.3139 H   0  0  0  0  0  0
    3.2905   -0.3597   14.8526 H   0  0  0  0  0  0
    2.0106   -2.2499   15.6805 H   0  0  0  0  0  0
   -0.8941   -3.9601   17.0361 H   0  0  0  0  0  0
    0.3518   -2.7408   17.1665 H   0  0  0  0  0  0
   -3.4534   -0.2750   12.6030 H   0  0  0  0  0  0
   -2.4939    1.1161   13.0974 H   0  0  0  0  0  0
   -1.8940    0.0041   11.8414 H   0  0  0  0  0  0
   -0.2471    1.2532   13.0158 H   0  0  0  0  0  0
   -0.4140    5.2900    9.7753 H   0  0  0  0  0  0
   -3.5035    5.9139    7.9854 H   0  0  0  0  0  0
   -1.8945    6.4846    8.4063 H   0  0  0  0  0  0
   -2.2762    4.7468    8.4573 H   0  0  0  0  0  0
  1  2  1  0  0  0
  1 32  1  0  0  0
  1 33  1  0  0  0
  1 34  1  0  0  0
  2  3  1  0  0  0
  3  4  2  0  0  0
  3 29  1  0  0  0
  4  5  1  0  0  0
  4 35  1  0  0  0
  5  6  2  0  0  0
  5 36  1  0  0  0
  6  7  1  0  0  0
  6 28  1  0  0  0
  7  8  1  0  0  0
  7 37  1  0  0  0
  8  9  2  0  0  0
  8 16  1  0  0  0
  9 10  1  0  0  0
 10 11  2  0  0  0
 10 17  1  0  0  0
 11 12  1  0  0  0
 11 38  1  0  0  0
 12 13  1  0  0  0
 12 16  1  0  0  0
 13 14  2  0  0  0
 13 39  1  0  0  0
 14 15  1  0  0  0
 14 40  1  0  0  0
 15 16  2  0  0  0
 17 18  2  0  0  0
 17 27  1  0  0  0
 18 19  1  0  0  0
 18 41  1  0  0  0
 19 20  2  0  0  0
 19 42  1  0  0  0
 20 21  1  0  0  0
 20 24  1  0  0  0
 21 22  2  0  0  0
 21 23  1  0  0  0
 23 43  1  0  0  0
 23 44  1  0  0  0
 24 25  1  0  0  0
 24 27  2  0  0  0
 25 26  1  0  0  0
 26 45  1  0  0  0
 26 46  1  0  0  0
 26 47  1  0  0  0
 27 48  1  0  0  0
 28 29  2  0  0  0
 28 49  1  0  0  0
 29 30  1  0  0  0
 30 31  1  0  0  0
 31 50  1  0  0  0
 31 51  1  0  0  0
 31 52  1  0  0  0
M  END
> <s_m_entry_id>
691

> <IC50[nM]>
23.8

> <s_m_Source_Path>
/projects/mai/users/kmzp800_harry/pmx_colab/docking_jobs/syk

> <s_m_Source_File>
tnks2_lig.sdf

> <i_m_Source_File_Index>
12

> <s_m_job_name>
glide-dock_SP_tnks2_no_const

> <r_i_docking_score>
-7.41211097895497

> <r_i_glide_gscore>
-7.41211097895497

> <r_i_glide_emodel>
-72.3844991739451

$$$$
CHEMBL3265023
                    3D
 Schrodinger Suite 2021-4.
 50 54  0  0  1  0            999 V2000
   -4.1589    4.5764    8.8351 C   0  0  0  0  0  0
   -3.1185    5.5203    8.6358 O   0  0  0  0  0  0
   -1.8391    5.1726    9.0173 C   0  0  0  0  0  0
   -1.5330    4.0018    9.7534 C   0  0  0  0  0  0
   -0.2073    3.7117   10.1204 C   0  0  0  0  0  0
    0.8402    4.5882    9.7660 C   0  0  0  0  0  0
    2.1885    4.3801   10.0952 N   0  0  0  0  0  0
    2.7682    3.7670   11.2163 C   0  0  0  0  0  0
    2.1784    2.7734   11.8166 N   0  0  0  0  0  0
    2.7902    2.1530   12.8844 C   0  0  0  0  0  0
    4.0118    2.5688   13.3688 C   0  0  0  0  0  0
    4.6243    3.6085   12.7410 N   0  0  0  0  0  0
    5.8385    4.2355   12.9568 C   0  0  0  0  0  0
    5.9515    5.2040   11.9964 C   0  0  0  0  0  0
    4.8300    5.2230   11.1762 N   0  0  0  0  0  0
    4.0367    4.2534   11.6312 C   0  0  0  0  0  0
    2.0561    0.9946   13.4591 C   0  0  0  0  0  0
    2.7280   -0.0032   14.2112 C   0  0  0  0  0  0
    2.0299   -1.0804   14.7912 C   0  0  0  0  0  0
    0.6422   -1.1764   14.6038 C   0  0  0  0  0  0
   -0.0703   -0.2254   13.8292 C   0  0  0  0  0  0
   -1.4281   -0.6744   13.8411 C   0  0  0  0  0  0
   -1.5747   -1.7583   14.5643 N   0  0  0  0  0  0
   -0.3341   -2.0658   15.0309 N   0  0  0  0  0  0
   -0.1840   -3.2313   15.8783 C   0  0  0  0  0  0
    0.6558    0.8541   13.2774 C   0  0  0  0  0  0
    0.5359    5.7427    9.0181 C   0  0  0  0  0  0
   -0.7948    6.0460    8.6382 C   0  0  0  0  0  0
   -1.1421    7.1602    7.9006 O   0  0  0  0  0  0
   -0.1133    8.0553    7.5032 C   0  0  0  0  0  0
   -5.0818    4.9653    8.4051 H   0  0  0  0  0  0
   -3.9386    3.6290    8.3405 H   0  0  0  0  0  0
   -4.3382    4.3996    9.8963 H   0  0  0  0  0  0
   -2.3012    3.3064   10.0537 H   0  0  0  0  0  0
   -0.0187    2.8045   10.6687 H   0  0  0  0  0  0
    2.8039    5.0979    9.7381 H   0  0  0  0  0  0
    4.5285    2.1311   14.2142 H   0  0  0  0  0  0
    6.4970    3.9115   13.7485 H   0  0  0  0  0  0
    6.7675    5.8913   11.8173 H   0  0  0  0  0  0
    3.7960    0.0494   14.3586 H   0  0  0  0  0  0
    2.5528   -1.8250   15.3736 H   0  0  0  0  0  0
   -2.2865   -0.2350   13.3567 H   0  0  0  0  0  0
    0.7710   -3.1959   16.4025 H   0  0  0  0  0  0
   -0.9844   -3.2617   16.6182 H   0  0  0  0  0  0
   -0.2212   -4.1356   15.2714 H   0  0  0  0  0  0
    0.1111    1.5919   12.7084 H   0  0  0  0  0  0
    1.3489    6.3983    8.7463 H   0  0  0  0  0  0
   -0.5491    8.8655    6.9188 H   0  0  0  0  0  0
    0.3826    8.5011    8.3667 H   0  0  0  0  0  0
    0.6298    7.5614    6.8754 H   0  0  0  0  0  0
  1  2  1  0  0  0
  1 31  1  0  0  0
  1 32  1  0  0  0
  1 33  1  0  0  0
  2  3  1  0  0  0
  3  4  2  0  0  0
  3 28  1  0  0  0
  4  5  1  0  0  0
  4 34  1  0  0  0
  5  6  2  0  0  0
  5 35  1  0  0  0
  6  7  1  0  0  0
  6 27  1  0  0  0
  7  8  1  0  0  0
  7 36  1  0  0  0
  8  9  2  0  0  0
  8 16  1  0  0  0
  9 10  1  0  0  0
 10 11  2  0  0  0
 10 17  1  0  0  0
 11 12  1  0  0  0
 11 37  1  0  0  0
 12 13  1  0  0  0
 12 16  1  0  0  0
 13 14  2  0  0  0
 13 38  1  0  0  0
 14 15  1  0  0  0
 14 39  1  0  0  0
 15 16  2  0  0  0
 17 18  2  0  0  0
 17 26  1  0  0  0
 18 19  1  0  0  0
 18 40  1  0  0  0
 19 20  2  0  0  0
 19 41  1  0  0  0
 20 21  1  0  0  0
 20 24  1  0  0  0
 21 22  1  0  0  0
 21 26  2  0  0  0
 22 23  2  0  0  0
 22 42  1  0  0  0
 23 24  1  0  0  0
 24 25  1  0  0  0
 25 43  1  0  0  0
 25 44  1  0  0  0
 25 45  1  0  0  0
 26 46  1  0  0  0
 27 28  2  0  0  0
 27 47  1  0  0  0
 28 29  1  0  0  0
 29 30  1  0  0  0
 30 48  1  0  0  0
 30 49  1  0  0  0
 30 50  1  0  0  0
M  END
> <s_m_entry_id>
692

> <IC50[nM]>
20.9

> <s_m_Source_Path>
/projects/mai/users/kmzp800_harry/pmx_colab/docking_jobs/syk

> <s_m_Source_File>
tnks2_lig.sdf

> <i_m_Source_File_Index>
13

> <s_m_job_name>
glide-dock_SP_tnks2_no_const

> <r_i_docking_score>
-6.36986625092394

> <r_i_glide_gscore>
-6.36986625092394

> <r_i_glide_emodel>
-63.0245229276993

$$$$
CHEMBL3264997
                    3D
 Schrodinger Suite 2021-4.
 60 64  0  0  1  0            999 V2000
   -4.4123    3.8551    9.1623 C   0  0  0  0  0  0
   -3.6922    4.2438   10.3250 O   0  0  0  0  0  0
   -2.3114    4.2350   10.2726 C   0  0  0  0  0  0
   -1.5712    3.9026    9.1094 C   0  0  0  0  0  0
   -0.1661    3.9115    9.1208 C   0  0  0  0  0  0
    0.5235    4.2220   10.3054 C   0  0  0  0  0  0
    1.9222    4.1910   10.3200 N   0  0  0  0  0  0
    2.7156    3.6297   11.3313 C   0  0  0  0  0  0
    2.2403    2.5992   11.9720 N   0  0  0  0  0  0
    2.9787    2.0156   12.9719 C   0  0  0  0  0  0
    4.2107    2.5058   13.3484 C   0  0  0  0  0  0
    4.7124    3.5678   12.6676 N   0  0  0  0  0  0
    5.9085    4.2494   12.7846 C   0  0  0  0  0  0
    5.8970    5.2132   11.8179 C   0  0  0  0  0  0
    4.7084    5.1868   11.0940 N   0  0  0  0  0  0
    3.9973    4.1814   11.6123 C   0  0  0  0  0  0
    2.3827    0.8119   13.6040 C   0  0  0  0  0  0
    3.2217   -0.1098   14.2697 C   0  0  0  0  0  0
    2.6930   -1.1960   14.9852 C   0  0  0  0  0  0
    1.3121   -1.4347   14.9825 C   0  0  0  0  0  0
    0.4426   -0.5902   14.2494 C   0  0  0  0  0  0
    0.9878    0.5399   13.5880 C   0  0  0  0  0  0
   -1.0346   -0.8865   14.1813 C   0  0  0  0  0  0
   -1.8421   -0.0301   13.8177 O   0  0  0  0  0  0
   -1.3579   -2.1507   14.5073 N   0  0  0  0  0  0
   -2.6184   -2.7998   14.5084 C   0  0  0  0  0  0
   -2.7607   -3.9129   15.3632 C   0  0  0  0  0  0
   -3.9595   -4.6470   15.3807 C   0  0  0  0  0  0
   -5.0190   -4.2840   14.5298 C   0  0  0  0  0  0
   -4.8959   -3.1742   13.6626 C   0  0  0  0  0  0
   -3.6877   -2.4338   13.6551 C   0  0  0  0  0  0
   -6.0377   -2.7952   12.7638 C   0  0  0  0  0  0
   -6.9872   -3.5952   12.6197 O   0  0  0  0  0  0
   -6.0234   -1.6676   12.2174 O   0  5  0  0  0  0
   -0.2021    4.5721   11.4626 C   0  0  0  0  0  0
   -1.6188    4.5903   11.4543 C   0  0  0  0  0  0
   -2.3808    4.9354   12.5543 O   0  0  0  0  0  0
   -1.7156    5.5010   13.6736 C   0  0  0  0  0  0
   -5.4807    3.9069    9.3695 H   0  0  0  0  0  0
   -4.2072    4.5192    8.3212 H   0  0  0  0  0  0
   -4.1816    2.8274    8.8787 H   0  0  0  0  0  0
   -2.0631    3.6301    8.1902 H   0  0  0  0  0  0
    0.3800    3.6451    8.2284 H   0  0  0  0  0  0
    2.3912    4.8886    9.7604 H   0  0  0  0  0  0
    4.8234    2.1069   14.1488 H   0  0  0  0  0  0
    6.6426    3.9657   13.5208 H   0  0  0  0  0  0
    6.6623    5.9444   11.5903 H   0  0  0  0  0  0
    4.2922    0.0225   14.2855 H   0  0  0  0  0  0
    3.3460   -1.8615   15.5263 H   0  0  0  0  0  0
    0.9514   -2.2879   15.5391 H   0  0  0  0  0  0
    0.3251    1.2112   13.0631 H   0  0  0  0  0  0
   -0.5895   -2.7113   14.8468 H   0  0  0  0  0  0
   -1.9497   -4.2121   16.0145 H   0  0  0  0  0  0
   -4.0669   -5.4891   16.0482 H   0  0  0  0  0  0
   -5.9355   -4.8554   14.5523 H   0  0  0  0  0  0
   -3.5819   -1.6071   12.9694 H   0  0  0  0  0  0
    0.3519    4.8218   12.3523 H   0  0  0  0  0  0
   -2.4494    5.7484   14.4380 H   0  0  0  0  0  0
   -1.0047    4.8038   14.1159 H   0  0  0  0  0  0
   -1.1911    6.4192   13.4050 H   0  0  0  0  0  0
  1  2  1  0  0  0
  1 39  1  0  0  0
  1 40  1  0  0  0
  1 41  1  0  0  0
  2  3  1  0  0  0
  3  4  2  0  0  0
  3 36  1  0  0  0
  4  5  1  0  0  0
  4 42  1  0  0  0
  5  6  2  0  0  0
  5 43  1  0  0  0
  6  7  1  0  0  0
  6 35  1  0  0  0
  7  8  1  0  0  0
  7 44  1  0  0  0
  8  9  2  0  0  0
  8 16  1  0  0  0
  9 10  1  0  0  0
 10 11  2  0  0  0
 10 17  1  0  0  0
 11 12  1  0  0  0
 11 45  1  0  0  0
 12 13  1  0  0  0
 12 16  1  0  0  0
 13 14  2  0  0  0
 13 46  1  0  0  0
 14 15  1  0  0  0
 14 47  1  0  0  0
 15 16  2  0  0  0
 17 18  2  0  0  0
 17 22  1  0  0  0
 18 19  1  0  0  0
 18 48  1  0  0  0
 19 20  2  0  0  0
 19 49  1  0  0  0
 20 21  1  0  0  0
 20 50  1  0  0  0
 21 22  2  0  0  0
 21 23  1  0  0  0
 22 51  1  0  0  0
 23 24  2  0  0  0
 23 25  1  0  0  0
 25 26  1  0  0  0
 25 52  1  0  0  0
 26 27  2  0  0  0
 26 31  1  0  0  0
 27 28  1  0  0  0
 27 53  1  0  0  0
 28 29  2  0  0  0
 28 54  1  0  0  0
 29 30  1  0  0  0
 29 55  1  0  0  0
 30 31  2  0  0  0
 30 32  1  0  0  0
 31 56  1  0  0  0
 32 33  2  0  0  0
 32 34  1  0  0  0
 35 36  2  0  0  0
 35 57  1  0  0  0
 36 37  1  0  0  0
 37 38  1  0  0  0
 38 58  1  0  0  0
 38 59  1  0  0  0
 38 60  1  0  0  0
M  CHG  1  34  -1
M  END
> <s_m_entry_id>
693

> <IC50[nM]>
8.9

> <s_m_Source_Path>
/projects/mai/users/kmzp800_harry/pmx_colab/docking_jobs/syk

> <s_m_Source_File>
tnks2_lig.sdf

> <i_m_Source_File_Index>
14

> <s_m_job_name>
glide-dock_SP_tnks2_no_const

> <r_i_docking_score>
-7.01472591182011

> <r_i_glide_gscore>
-7.01472591182011

> <r_i_glide_emodel>
-86.7533503996569

$$$$
CHEMBL3264998
                    3D
 Schrodinger Suite 2021-4.
 63 67  0  0  1  0            999 V2000
   -3.8631    4.2532    8.6815 C   0  0  0  0  0  0
   -3.2577    4.4046    9.9562 O   0  0  0  0  0  0
   -1.8825    4.3362   10.0430 C   0  0  0  0  0  0
   -1.0364    4.0726    8.9353 C   0  0  0  0  0  0
    0.3596    4.0029    9.0971 C   0  0  0  0  0  0
    0.9270    4.1551   10.3753 C   0  0  0  0  0  0
    2.3123    4.0296   10.5380 N   0  0  0  0  0  0
    2.9676    3.4198   11.6173 C   0  0  0  0  0  0
    2.3806    2.4173   12.2047 N   0  0  0  0  0  0
    2.9920    1.7800   13.2589 C   0  0  0  0  0  0
    4.2149    2.1848   13.7449 C   0  0  0  0  0  0
    4.8238    3.2347   13.1325 N   0  0  0  0  0  0
    6.0299    3.8595   13.3749 C   0  0  0  0  0  0
    6.1771    4.8045   12.3963 C   0  0  0  0  0  0
    5.0554    4.8536   11.5785 N   0  0  0  0  0  0
    4.2443    3.8935   12.0232 C   0  0  0  0  0  0
    2.2527    0.6199   13.8169 C   0  0  0  0  0  0
    2.9225   -0.3962   14.5375 C   0  0  0  0  0  0
    2.2209   -1.4835   15.0826 C   0  0  0  0  0  0
    0.8388   -1.6047   14.8861 C   0  0  0  0  0  0
    0.1391   -0.6188   14.1581 C   0  0  0  0  0  0
    0.8538    0.4866   13.6421 C   0  0  0  0  0  0
   -1.3331   -0.7517   13.8768 C   0  0  0  0  0  0
   -1.8725   -0.0538   13.0172 O   0  0  0  0  0  0
   -2.0065   -1.5971   14.6741 N   0  0  0  0  0  0
   -3.3502   -2.0077   14.5176 C   0  0  0  0  0  0
   -4.1407   -2.2038   15.6678 C   0  0  0  0  0  0
   -5.4778   -2.6276   15.5404 C   0  0  0  0  0  0
   -6.0242   -2.8755   14.2625 C   0  0  0  0  0  0
   -7.4727   -3.3071   14.1182 C   0  0  0  0  0  0
   -8.3434   -2.0622   13.9278 C   0  0  0  0  0  0
   -9.3843   -1.9908   14.6168 O   0  0  0  0  0  0
   -7.9610   -1.1961   13.1067 O   0  5  0  0  0  0
   -5.2238   -2.7099   13.1139 C   0  0  0  0  0  0
   -3.8933   -2.2778   13.2399 C   0  0  0  0  0  0
    0.0939    4.4496   11.4732 C   0  0  0  0  0  0
   -1.3088    4.5564   11.3156 C   0  0  0  0  0  0
   -2.1622    4.8626   12.3550 O   0  0  0  0  0  0
   -1.5999    5.4744   13.5085 C   0  0  0  0  0  0
   -4.9480    4.2982    8.7913 H   0  0  0  0  0  0
   -3.5697    5.0628    8.0123 H   0  0  0  0  0  0
   -3.6190    3.2936    8.2250 H   0  0  0  0  0  0
   -1.4327    3.9150    7.9446 H   0  0  0  0  0  0
    0.9879    3.7902    8.2454 H   0  0  0  0  0  0
    2.8819    4.6658   10.0001 H   0  0  0  0  0  0
    4.7319    1.7289   14.5812 H   0  0  0  0  0  0
    6.6740    3.5312   14.1763 H   0  0  0  0  0  0
    7.0070    5.4776   12.2202 H   0  0  0  0  0  0
    3.9922   -0.3510   14.6903 H   0  0  0  0  0  0
    2.7563   -2.2334   15.6420 H   0  0  0  0  0  0
    0.3422   -2.4738   15.2944 H   0  0  0  0  0  0
    0.3150    1.2442   13.0906 H   0  0  0  0  0  0
   -1.5076   -1.9824   15.4616 H   0  0  0  0  0  0
   -3.7345   -2.0110   16.6507 H   0  0  0  0  0  0
   -6.0843   -2.7557   16.4257 H   0  0  0  0  0  0
   -7.7898   -3.8567   15.0077 H   0  0  0  0  0  0
   -7.5918   -3.9748   13.2639 H   0  0  0  0  0  0
   -5.6397   -2.8962   12.1325 H   0  0  0  0  0  0
   -3.3001   -2.1518   12.3472 H   0  0  0  0  0  0
    0.5573    4.5886   12.4370 H   0  0  0  0  0  0
   -2.3964    5.7390   14.2031 H   0  0  0  0  0  0
   -0.9235    4.8048   14.0377 H   0  0  0  0  0  0
   -1.0642    6.3877   13.2527 H   0  0  0  0  0  0
  1  2  1  0  0  0
  1 40  1  0  0  0
  1 41  1  0  0  0
  1 42  1  0  0  0
  2  3  1  0  0  0
  3  4  2  0  0  0
  3 37  1  0  0  0
  4  5  1  0  0  0
  4 43  1  0  0  0
  5  6  2  0  0  0
  5 44  1  0  0  0
  6  7  1  0  0  0
  6 36  1  0  0  0
  7  8  1  0  0  0
  7 45  1  0  0  0
  8  9  2  0  0  0
  8 16  1  0  0  0
  9 10  1  0  0  0
 10 11  2  0  0  0
 10 17  1  0  0  0
 11 12  1  0  0  0
 11 46  1  0  0  0
 12 13  1  0  0  0
 12 16  1  0  0  0
 13 14  2  0  0  0
 13 47  1  0  0  0
 14 15  1  0  0  0
 14 48  1  0  0  0
 15 16  2  0  0  0
 17 18  2  0  0  0
 17 22  1  0  0  0
 18 19  1  0  0  0
 18 49  1  0  0  0
 19 20  2  0  0  0
 19 50  1  0  0  0
 20 21  1  0  0  0
 20 51  1  0  0  0
 21 22  2  0  0  0
 21 23  1  0  0  0
 22 52  1  0  0  0
 23 24  2  0  0  0
 23 25  1  0  0  0
 25 26  1  0  0  0
 25 53  1  0  0  0
 26 27  2  0  0  0
 26 35  1  0  0  0
 27 28  1  0  0  0
 27 54  1  0  0  0
 28 29  2  0  0  0
 28 55  1  0  0  0
 29 30  1  0  0  0
 29 34  1  0  0  0
 30 31  1  0  0  0
 30 56  1  0  0  0
 30 57  1  0  0  0
 31 32  2  0  0  0
 31 33  1  0  0  0
 34 35  2  0  0  0
 34 58  1  0  0  0
 35 59  1  0  0  0
 36 37  2  0  0  0
 36 60  1  0  0  0
 37 38  1  0  0  0
 38 39  1  0  0  0
 39 61  1  0  0  0
 39 62  1  0  0  0
 39 63  1  0  0  0
M  CHG  1  33  -1
M  END
> <s_m_entry_id>
694

> <IC50[nM]>
2.6

> <s_m_Source_Path>
/projects/mai/users/kmzp800_harry/pmx_colab/docking_jobs/syk

> <s_m_Source_File>
tnks2_lig.sdf

> <i_m_Source_File_Index>
15

> <s_m_job_name>
glide-dock_SP_tnks2_no_const

> <r_i_docking_score>
-7.11840043993134

> <r_i_glide_gscore>
-7.11840043993134

> <r_i_glide_emodel>
-87.658646923044

$$$$
CHEMBL3265027
                    3D
 Schrodinger Suite 2021-4.
 39 43  0  0  1  0            999 V2000
   -1.9641    1.0328   11.8973 N   0  0  0  0  0  0
   -2.1896    2.1489   11.0712 C   0  0  0  0  0  0
   -3.5261    2.4039   10.6914 C   0  0  0  0  0  0
   -3.8484    3.4971    9.8640 C   0  0  0  0  0  0
   -2.8306    4.3491    9.3962 C   0  0  0  0  0  0
   -1.4918    4.0940    9.7468 C   0  0  0  0  0  0
   -1.1719    3.0017   10.5768 C   0  0  0  0  0  0
   -0.8820    0.6866   12.7252 C   0  0  0  0  0  0
    0.2361    1.3454   12.6483 N   0  0  0  0  0  0
    1.3006    1.0052   13.4513 C   0  0  0  0  0  0
    1.2286   -0.0279   14.3591 C   0  0  0  0  0  0
    0.0570   -0.7117   14.4488 N   0  0  0  0  0  0
   -0.3313   -1.7729   15.2467 C   0  0  0  0  0  0
   -1.6332   -2.0476   14.9244 C   0  0  0  0  0  0
   -2.0903   -1.1841   13.9355 N   0  0  0  0  0  0
   -1.0587   -0.3882   13.6431 C   0  0  0  0  0  0
    2.5254    1.8203   13.2530 C   0  0  0  0  0  0
    3.8006    1.3505   13.6539 C   0  0  0  0  0  0
    4.9655    2.1216   13.4583 C   0  0  0  0  0  0
    4.9050    3.3782   12.8182 C   0  0  0  0  0  0
    5.8207    4.4038   12.4108 C   0  0  0  0  0  0
    5.2069    5.3858   11.7948 N   0  0  0  0  0  0
    3.8893    5.0628   11.8223 N   0  0  0  0  0  0
    3.6266    3.8403   12.4169 C   0  0  0  0  0  0
    2.4571    3.0956   12.6403 C   0  0  0  0  0  0
   -2.7299    0.3747   11.9620 H   0  0  0  0  0  0
   -4.3163    1.7482   11.0212 H   0  0  0  0  0  0
   -4.8753    3.6775    9.5826 H   0  0  0  0  0  0
   -3.0740    5.1870    8.7564 H   0  0  0  0  0  0
   -0.7064    4.7336    9.3704 H   0  0  0  0  0  0
   -0.1308    2.8303   10.7952 H   0  0  0  0  0  0
    2.0322   -0.3341   15.0209 H   0  0  0  0  0  0
    0.3548   -2.2125   15.9563 H   0  0  0  0  0  0
   -2.2838   -2.8048   15.3379 H   0  0  0  0  0  0
    3.9050    0.3817   14.1185 H   0  0  0  0  0  0
    5.9210    1.7364   13.7853 H   0  0  0  0  0  0
    6.8959    4.4377   12.5227 H   0  0  0  0  0  0
    3.2033    5.6933   11.4316 H   0  0  0  0  0  0
    1.5102    3.5089   12.3260 H   0  0  0  0  0  0
  1  2  1  0  0  0
  1  8  1  0  0  0
  1 26  1  0  0  0
  2  3  2  0  0  0
  2  7  1  0  0  0
  3  4  1  0  0  0
  3 27  1  0  0  0
  4  5  2  0  0  0
  4 28  1  0  0  0
  5  6  1  0  0  0
  5 29  1  0  0  0
  6  7  2  0  0  0
  6 30  1  0  0  0
  7 31  1  0  0  0
  8  9  2  0  0  0
  8 16  1  0  0  0
  9 10  1  0  0  0
 10 11  2  0  0  0
 10 17  1  0  0  0
 11 12  1  0  0  0
 11 32  1  0  0  0
 12 13  1  0  0  0
 12 16  1  0  0  0
 13 14  2  0  0  0
 13 33  1  0  0  0
 14 15  1  0  0  0
 14 34  1  0  0  0
 15 16  2  0  0  0
 17 18  2  0  0  0
 17 25  1  0  0  0
 18 19  1  0  0  0
 18 35  1  0  0  0
 19 20  2  0  0  0
 19 36  1  0  0  0
 20 21  1  0  0  0
 20 24  1  0  0  0
 21 22  2  0  0  0
 21 37  1  0  0  0
 22 23  1  0  0  0
 23 24  1  0  0  0
 23 38  1  0  0  0
 24 25  2  0  0  0
 25 39  1  0  0  0
M  END
> <s_m_entry_id>
695

> <IC50[nM]>
26.8

> <s_m_Source_Path>
/projects/mai/users/kmzp800_harry/pmx_colab/docking_jobs/syk

> <s_m_Source_File>
tnks2_lig.sdf

> <i_m_Source_File_Index>
16

> <s_m_job_name>
glide-dock_SP_tnks2_no_const

> <r_i_docking_score>
-6.1282673523546

> <r_i_glide_gscore>
-6.1282673523546

> <r_i_glide_emodel>
-56.1783565169259

$$$$
CHEMBL3265006
                    3D
 Schrodinger Suite 2021-4.
 51 54  0  0  1  0            999 V2000
   -6.9424   -0.4120   18.5815 C   0  0  0  0  0  0
   -5.9718   -1.1711   17.8174 N   0  0  0  0  0  0
   -6.2650   -1.9612   16.7783 C   0  0  0  0  0  0
   -7.3869   -2.0747   16.2853 O   0  0  0  0  0  0
   -5.0956   -2.7179   16.2379 C   0  0  0  0  0  0
   -5.1279   -4.1241   16.1422 C   0  0  0  0  0  0
   -3.9996   -4.8203   15.6696 C   0  0  0  0  0  0
   -2.8486   -4.1131   15.2664 C   0  0  0  0  0  0
   -2.8187   -2.7037   15.3153 C   0  0  0  0  0  0
   -3.9488   -2.0200   15.8127 C   0  0  0  0  0  0
   -1.6483   -1.9455   14.8480 C   0  0  0  0  0  0
   -0.3853   -2.1509   15.3462 C   0  0  0  0  0  0
    0.6198   -1.3936   14.8319 N   0  0  0  0  0  0
    1.9731   -1.3542   15.1086 C   0  0  0  0  0  0
    2.5185   -0.4345   14.2566 C   0  0  0  0  0  0
    1.5395    0.1376   13.4564 N   0  0  0  0  0  0
    0.3860   -0.4252   13.8243 C   0  0  0  0  0  0
   -0.9761   -0.2662   13.4153 C   0  0  0  0  0  0
   -1.3804    0.6296   12.4186 N   0  0  0  0  0  0
   -0.9502    1.9472   12.2058 C   0  0  0  0  0  0
   -0.2551    2.6936   13.1817 C   0  0  0  0  0  0
    0.1275    4.0234   12.9281 C   0  0  0  0  0  0
   -0.1821    4.6376   11.6899 C   0  0  0  0  0  0
    0.1382    5.9439   11.3810 O   0  0  0  0  0  0
    0.8886    6.6912   12.3286 C   0  0  0  0  0  0
   -0.8791    3.8852   10.7150 C   0  0  0  0  0  0
   -1.2174    4.4329    9.5060 O   0  0  0  0  0  0
   -0.1247    4.5790    8.6133 C   0  0  0  0  0  0
   -1.2707    2.5604   10.9822 C   0  0  0  0  0  0
   -1.9339   -1.0047   13.8878 N   0  0  0  0  0  0
   -6.4274    0.4039   19.0826 H   0  0  0  0  0  0
   -7.4115   -1.0435   19.3370 H   0  0  0  0  0  0
   -7.7247    0.0032   17.9494 H   0  0  0  0  0  0
   -5.0268   -1.1947   18.1870 H   0  0  0  0  0  0
   -6.0052   -4.6716   16.4560 H   0  0  0  0  0  0
   -4.0148   -5.8993   15.6194 H   0  0  0  0  0  0
   -1.9896   -4.6572   14.9011 H   0  0  0  0  0  0
   -3.9283   -0.9415   15.8678 H   0  0  0  0  0  0
   -0.1366   -2.8744   16.1194 H   0  0  0  0  0  0
    2.3959   -1.9944   15.8685 H   0  0  0  0  0  0
    3.5506   -0.1290   14.1602 H   0  0  0  0  0  0
   -2.1823    0.3317   11.8826 H   0  0  0  0  0  0
   -0.0154    2.2659   14.1432 H   0  0  0  0  0  0
    0.6503    4.5551   13.7095 H   0  0  0  0  0  0
    1.0785    7.6894   11.9352 H   0  0  0  0  0  0
    0.3408    6.8044   13.2664 H   0  0  0  0  0  0
    1.8557    6.2267   12.5308 H   0  0  0  0  0  0
   -0.4219    5.2187    7.7864 H   0  0  0  0  0  0
    0.7485    5.0347    9.0814 H   0  0  0  0  0  0
    0.1676    3.6123    8.2022 H   0  0  0  0  0  0
   -1.8114    2.0126   10.2270 H   0  0  0  0  0  0
  1  2  1  0  0  0
  1 31  1  0  0  0
  1 32  1  0  0  0
  1 33  1  0  0  0
  2  3  1  0  0  0
  2 34  1  0  0  0
  3  4  2  0  0  0
  3  5  1  0  0  0
  5  6  2  0  0  0
  5 10  1  0  0  0
  6  7  1  0  0  0
  6 35  1  0  0  0
  7  8  2  0  0  0
  7 36  1  0  0  0
  8  9  1  0  0  0
  8 37  1  0  0  0
  9 10  2  0  0  0
  9 11  1  0  0  0
 10 38  1  0  0  0
 11 12  2  0  0  0
 11 30  1  0  0  0
 12 13  1  0  0  0
 12 39  1  0  0  0
 13 14  1  0  0  0
 13 17  1  0  0  0
 14 15  2  0  0  0
 14 40  1  0  0  0
 15 16  1  0  0  0
 15 41  1  0  0  0
 16 17  2  0  0  0
 17 18  1  0  0  0
 18 19  1  0  0  0
 18 30  2  0  0  0
 19 20  1  0  0  0
 19 42  1  0  0  0
 20 21  2  0  0  0
 20 29  1  0  0  0
 21 22  1  0  0  0
 21 43  1  0  0  0
 22 23  2  0  0  0
 22 44  1  0  0  0
 23 24  1  0  0  0
 23 26  1  0  0  0
 24 25  1  0  0  0
 25 45  1  0  0  0
 25 46  1  0  0  0
 25 47  1  0  0  0
 26 27  1  0  0  0
 26 29  2  0  0  0
 27 28  1  0  0  0
 28 48  1  0  0  0
 28 49  1  0  0  0
 28 50  1  0  0  0
 29 51  1  0  0  0
M  END
> <s_m_entry_id>
696

> <IC50[nM]>
50.2

> <s_m_Source_Path>
/projects/mai/users/kmzp800_harry/pmx_colab/docking_jobs/syk

> <s_m_Source_File>
tnks2_lig.sdf

> <i_m_Source_File_Index>
17

> <s_m_job_name>
glide-dock_SP_tnks2_no_const

> <r_i_docking_score>
-6.69232444437279

> <r_i_glide_gscore>
-6.69232444437279

> <r_i_glide_emodel>
-67.0080588159617

$$$$
CHEMBL3265003
                    3D
 Schrodinger Suite 2021-4.
 65 70  0  0  1  0            999 V2000
   -0.6099    6.3967   11.1846 C   0  0  0  0  0  0
   -1.5125    5.4325   10.6600 O   0  0  0  0  0  0
   -1.5579    4.1877   11.2539 C   0  0  0  0  0  0
   -0.6935    3.7903   12.3026 C   0  0  0  0  0  0
   -0.7989    2.5095   12.8715 C   0  0  0  0  0  0
   -1.7597    1.5874   12.3977 C   0  0  0  0  0  0
   -1.9349    0.2971   12.9321 N   0  0  0  0  0  0
   -1.0803   -0.4782   13.7320 C   0  0  0  0  0  0
    0.1785   -0.1707   13.7997 N   0  0  0  0  0  0
    1.0432   -0.8958   14.5859 C   0  0  0  0  0  0
    0.6109   -1.9810   15.3160 C   0  0  0  0  0  0
   -0.7020   -2.3239   15.2267 N   0  0  0  0  0  0
   -1.4304   -3.3368   15.8175 C   0  0  0  0  0  0
   -2.7203   -3.1971   15.3866 C   0  0  0  0  0  0
   -2.8394   -2.1174   14.5193 N   0  0  0  0  0  0
   -1.6153   -1.5939   14.4309 C   0  0  0  0  0  0
    2.4457   -0.3972   14.5905 C   0  0  0  0  0  0
    3.4302   -0.9151   15.4653 C   0  0  0  0  0  0
    4.7429   -0.3960   15.4819 C   0  0  0  0  0  0
    5.1066    0.6531   14.6178 C   0  0  0  0  0  0
    4.1416    1.2108   13.7571 C   0  0  0  0  0  0
    2.8369    0.6692   13.7417 C   0  0  0  0  0  0
    4.4523    2.4574   12.9823 C   0  0  0  0  0  0
    5.3537    3.2077   13.3550 O   0  0  0  0  0  0
    3.7314    2.6288   11.8582 N   0  0  0  0  0  0
    3.4984    3.8341   11.1479 C   0  0  0  0  0  0
    2.8843    3.7599    9.8813 C   0  0  0  0  0  0
    2.5549    4.9350    9.1766 C   0  0  0  0  0  0
    2.8282    6.2104    9.7167 C   0  0  0  0  0  0
    3.4300    6.2657   10.9888 C   0  0  0  0  0  0
    3.7634    5.1048   11.7004 C   0  0  0  0  0  0
    2.4785    7.4311    8.9850 C   0  0  0  0  0  0
    1.7849    7.6045    7.8190 C   0  0  0  0  0  0
    1.7848    9.0127    7.6159 C   0  0  0  0  0  0
    2.4048    9.6680    8.5815 N   0  0  0  0  0  0
    2.8274    8.6971    9.4174 N   0  0  0  0  0  0
   -2.6282    1.9913   11.3644 C   0  0  0  0  0  0
   -2.5387    3.2826   10.7873 C   0  0  0  0  0  0
   -3.3696    3.7182    9.7752 O   0  0  0  0  0  0
   -4.5641    2.9916    9.5214 C   0  0  0  0  0  0
   -0.6871    7.3170   10.6063 H   0  0  0  0  0  0
   -0.8424    6.6359   12.2233 H   0  0  0  0  0  0
    0.4220    6.0547   11.1196 H   0  0  0  0  0  0
    0.0581    4.4554   12.7003 H   0  0  0  0  0  0
   -0.1393    2.2716   13.6907 H   0  0  0  0  0  0
   -2.7685   -0.1986   12.6523 H   0  0  0  0  0  0
    1.2305   -2.5912   15.9644 H   0  0  0  0  0  0
   -0.9583   -4.0317   16.4984 H   0  0  0  0  0  0
   -3.5832   -3.7955   15.6420 H   0  0  0  0  0  0
    3.1917   -1.7145   16.1492 H   0  0  0  0  0  0
    5.4766   -0.8054   16.1617 H   0  0  0  0  0  0
    6.1089    1.0573   14.6595 H   0  0  0  0  0  0
    2.1028    1.1266   13.0963 H   0  0  0  0  0  0
    3.1753    1.8398   11.5683 H   0  0  0  0  0  0
    2.6431    2.8038    9.4444 H   0  0  0  0  0  0
    2.0725    4.8462    8.2177 H   0  0  0  0  0  0
    3.6296    7.2040   11.4620 H   0  0  0  0  0  0
    4.1912    5.2230   12.6844 H   0  0  0  0  0  0
    1.3376    6.8435    7.2012 H   0  0  0  0  0  0
    1.3441    9.5754    6.8065 H   0  0  0  0  0  0
    3.2983    8.9259   10.3035 H   0  0  0  0  0  0
   -3.3566    1.2803   11.0065 H   0  0  0  0  0  0
   -5.1688    3.5429    8.8013 H   0  0  0  0  0  0
   -4.3692    2.0078    9.0950 H   0  0  0  0  0  0
   -5.1588    2.8763   10.4284 H   0  0  0  0  0  0
  1  2  1  0  0  0
  1 41  1  0  0  0
  1 42  1  0  0  0
  1 43  1  0  0  0
  2  3  1  0  0  0
  3  4  2  0  0  0
  3 38  1  0  0  0
  4  5  1  0  0  0
  4 44  1  0  0  0
  5  6  2  0  0  0
  5 45  1  0  0  0
  6  7  1  0  0  0
  6 37  1  0  0  0
  7  8  1  0  0  0
  7 46  1  0  0  0
  8  9  2  0  0  0
  8 16  1  0  0  0
  9 10  1  0  0  0
 10 11  2  0  0  0
 10 17  1  0  0  0
 11 12  1  0  0  0
 11 47  1  0  0  0
 12 13  1  0  0  0
 12 16  1  0  0  0
 13 14  2  0  0  0
 13 48  1  0  0  0
 14 15  1  0  0  0
 14 49  1  0  0  0
 15 16  2  0  0  0
 17 18  2  0  0  0
 17 22  1  0  0  0
 18 19  1  0  0  0
 18 50  1  0  0  0
 19 20  2  0  0  0
 19 51  1  0  0  0
 20 21  1  0  0  0
 20 52  1  0  0  0
 21 22  2  0  0  0
 21 23  1  0  0  0
 22 53  1  0  0  0
 23 24  2  0  0  0
 23 25  1  0  0  0
 25 26  1  0  0  0
 25 54  1  0  0  0
 26 27  2  0  0  0
 26 31  1  0  0  0
 27 28  1  0  0  0
 27 55  1  0  0  0
 28 29  2  0  0  0
 28 56  1  0  0  0
 29 30  1  0  0  0
 29 32  1  0  0  0
 30 31  2  0  0  0
 30 57  1  0  0  0
 31 58  1  0  0  0
 32 36  1  0  0  0
 32 33  2  0  0  0
 33 34  1  0  0  0
 33 59  1  0  0  0
 34 60  1  0  0  0
 34 35  2  0  0  0
 35 36  1  0  0  0
 36 61  1  0  0  0
 37 38  2  0  0  0
 37 62  1  0  0  0
 38 39  1  0  0  0
 39 40  1  0  0  0
 40 63  1  0  0  0
 40 64  1  0  0  0
 40 65  1  0  0  0
M  END
> <s_m_entry_id>
697

> <IC50[nM]>
11.7

> <s_m_Source_Path>
/projects/mai/users/kmzp800_harry/pmx_colab/docking_jobs/syk

> <s_m_Source_File>
tnks2_lig.sdf

> <i_m_Source_File_Index>
18

> <s_m_job_name>
glide-dock_SP_tnks2_no_const

> <r_i_docking_score>
-7.09579978660105

> <r_i_glide_gscore>
-7.09579978660105

> <r_i_glide_emodel>
-79.6328043946385

$$$$
CHEMBL3265018
                    3D
 Schrodinger Suite 2021-4.
 47 51  0  0  1  0            999 V2000
   -4.1124   -1.7847   15.1875 C   0  0  0  0  0  0
   -3.4892   -0.8925   14.2732 O   0  0  0  0  0  0
   -2.1090   -0.8786   14.2173 C   0  0  0  0  0  0
   -1.2819   -1.7047   15.0173 C   0  0  0  0  0  0
    0.1184   -1.6074   14.9394 C   0  0  0  0  0  0
    0.7295   -0.6965   14.0572 C   0  0  0  0  0  0
    2.1353   -0.6557   14.0545 N   0  0  0  0  0  0
    3.0152    0.4128   13.8111 C   0  0  0  0  0  0
    2.6732    1.3880   13.0175 N   0  0  0  0  0  0
    3.5462    2.4324   12.8194 C   0  0  0  0  0  0
    4.7884    2.4989   13.3951 C   0  0  0  0  0  0
    5.1346    1.4906   14.2331 N   0  0  0  0  0  0
    6.2524    1.2860   15.0174 C   0  0  0  0  0  0
    6.0301    0.1406   15.7294 C   0  0  0  0  0  0
    4.7916   -0.3960   15.4174 N   0  0  0  0  0  0
    4.2680    0.4040   14.4902 C   0  0  0  0  0  0
    3.0543    3.5145   11.9581 C   0  0  0  0  0  0
    2.7881    3.2716   10.5934 C   0  0  0  0  0  0
    2.3089    4.2920    9.7453 C   0  0  0  0  0  0
    2.0792    5.5880   10.2545 C   0  0  0  0  0  0
    1.6176    6.7323    9.6221 N   0  0  0  0  0  0
    1.6302    7.6152   10.6194 C   0  0  0  0  0  0
    2.0244    7.1562   11.8174 N   0  0  0  0  0  0
    2.3515    5.8231   11.6361 C   0  0  0  0  0  0
    2.8410    4.8094   12.4794 C   0  0  0  0  0  0
   -0.0942    0.0977   13.2257 C   0  0  0  0  0  0
   -1.5095    0.0218   13.3081 C   0  0  0  0  0  0
   -2.3625    0.7981   12.5486 O   0  0  0  0  0  0
   -1.8025    1.5906   11.5106 C   0  0  0  0  0  0
   -5.1942   -1.6751   15.1173 H   0  0  0  0  0  0
   -3.8278   -1.5684   16.2179 H   0  0  0  0  0  0
   -3.8714   -2.8234   14.9573 H   0  0  0  0  0  0
   -1.6949   -2.4134   15.7192 H   0  0  0  0  0  0
    0.7227   -2.2378   15.5769 H   0  0  0  0  0  0
    2.5605   -1.3334   14.6728 H   0  0  0  0  0  0
    5.4852    3.3190   13.2580 H   0  0  0  0  0  0
    7.0724    1.9882   15.0155 H   0  0  0  0  0  0
    6.6651   -0.3397   16.4585 H   0  0  0  0  0  0
    2.9544    2.2813   10.2012 H   0  0  0  0  0  0
    2.1105    4.0873    8.7043 H   0  0  0  0  0  0
    1.3508    8.6488   10.4736 H   0  0  0  0  0  0
    2.1069    7.7292   12.6571 H   0  0  0  0  0  0
    3.0380    5.0183   13.5215 H   0  0  0  0  0  0
    0.3617    0.7720   12.5220 H   0  0  0  0  0  0
   -2.6057    2.0778   10.9582 H   0  0  0  0  0  0
   -1.1558    2.3730   11.9098 H   0  0  0  0  0  0
   -1.2396    0.9812   10.8019 H   0  0  0  0  0  0
  1  2  1  0  0  0
  1 30  1  0  0  0
  1 31  1  0  0  0
  1 32  1  0  0  0
  2  3  1  0  0  0
  3  4  2  0  0  0
  3 27  1  0  0  0
  4  5  1  0  0  0
  4 33  1  0  0  0
  5  6  2  0  0  0
  5 34  1  0  0  0
  6  7  1  0  0  0
  6 26  1  0  0  0
  7  8  1  0  0  0
  7 35  1  0  0  0
  8  9  2  0  0  0
  8 16  1  0  0  0
  9 10  1  0  0  0
 10 11  2  0  0  0
 10 17  1  0  0  0
 11 12  1  0  0  0
 11 36  1  0  0  0
 12 13  1  0  0  0
 12 16  1  0  0  0
 13 14  2  0  0  0
 13 37  1  0  0  0
 14 15  1  0  0  0
 14 38  1  0  0  0
 15 16  2  0  0  0
 17 18  2  0  0  0
 17 25  1  0  0  0
 18 19  1  0  0  0
 18 39  1  0  0  0
 19 20  2  0  0  0
 19 40  1  0  0  0
 20 21  1  0  0  0
 20 24  1  0  0  0
 21 22  2  0  0  0
 22 23  1  0  0  0
 22 41  1  0  0  0
 23 24  1  0  0  0
 23 42  1  0  0  0
 24 25  2  0  0  0
 25 43  1  0  0  0
 26 27  2  0  0  0
 26 44  1  0  0  0
 27 28  1  0  0  0
 28 29  1  0  0  0
 29 45  1  0  0  0
 29 46  1  0  0  0
 29 47  1  0  0  0
M  END
> <s_m_entry_id>
698

> <IC50[nM]>
6.3

> <s_m_Source_Path>
/projects/mai/users/kmzp800_harry/pmx_colab/docking_jobs/syk

> <s_m_Source_File>
tnks2_lig.sdf

> <i_m_Source_File_Index>
19

> <s_m_job_name>
glide-dock_SP_tnks2_no_const

> <r_i_docking_score>
-7.51210598961409

> <r_i_glide_gscore>
-7.51210598961409

> <r_i_glide_emodel>
-67.8227350860263

$$$$
CHEMBL3265025
                    3D
 Schrodinger Suite 2021-4.
 50 54  0  0  1  0            999 V2000
   -4.1018   -1.7046   15.1836 C   0  0  0  0  0  0
   -3.4737   -0.8323   14.2536 O   0  0  0  0  0  0
   -2.0933   -0.8245   14.1991 C   0  0  0  0  0  0
   -1.2709   -1.6373   15.0174 C   0  0  0  0  0  0
    0.1295   -1.5502   14.9359 C   0  0  0  0  0  0
    0.7437   -0.6597   14.0352 C   0  0  0  0  0  0
    2.1480   -0.6278   14.0260 N   0  0  0  0  0  0
    3.0331    0.4400   13.8010 C   0  0  0  0  0  0
    2.6987    1.4408   13.0361 N   0  0  0  0  0  0
    3.5790    2.4879   12.8464 C   0  0  0  0  0  0
    4.8352    2.5000   13.4052 C   0  0  0  0  0  0
    5.1633    1.4789   14.2340 N   0  0  0  0  0  0
    6.2778    1.2528   15.0174 C   0  0  0  0  0  0
    6.0303    0.1159   15.7339 C   0  0  0  0  0  0
    4.7837   -0.3960   15.4177 N   0  0  0  0  0  0
    4.2802    0.4064   14.4843 C   0  0  0  0  0  0
    3.0900    3.6132   12.0133 C   0  0  0  0  0  0
    3.6458    4.9132   12.1105 C   0  0  0  0  0  0
    3.1932    5.9641   11.2876 C   0  0  0  0  0  0
    2.1755    5.7278   10.3471 C   0  0  0  0  0  0
    1.7557    6.7500    9.4726 N   0  0  0  0  0  0
    0.7184    6.5966    8.6398 C   0  0  0  0  0  0
    0.4202    7.4394    7.7966 O   0  0  0  0  0  0
   -0.1214    5.3136    8.7934 C   0  0  0  0  0  0
    0.6225    4.1940    9.3000 O   0  0  0  0  0  0
    1.5922    4.4494   10.2438 C   0  0  0  0  0  0
    2.0473    3.4145   11.0815 C   0  0  0  0  0  0
   -0.0735    0.1206   13.1860 C   0  0  0  0  0  0
   -1.4890    0.0501   13.2668 C   0  0  0  0  0  0
   -2.3368    0.8046   12.4805 O   0  0  0  0  0  0
   -1.7699    1.5680   11.4235 C   0  0  0  0  0  0
   -5.1834   -1.5999   15.1012 H   0  0  0  0  0  0
   -3.8273   -1.4623   16.2110 H   0  0  0  0  0  0
   -3.8574   -2.7480   14.9801 H   0  0  0  0  0  0
   -1.6872   -2.3289   15.7341 H   0  0  0  0  0  0
    0.7316   -2.1708   15.5856 H   0  0  0  0  0  0
    2.5700   -1.3131   14.6385 H   0  0  0  0  0  0
    5.5661    3.2904   13.2788 H   0  0  0  0  0  0
    7.1112    1.9391   15.0114 H   0  0  0  0  0  0
    6.6528   -0.3758   16.4662 H   0  0  0  0  0  0
    4.4242    5.1273   12.8273 H   0  0  0  0  0  0
    3.6306    6.9473   11.3798 H   0  0  0  0  0  0
    2.2705    7.6193    9.4690 H   0  0  0  0  0  0
   -0.5473    5.0411    7.8273 H   0  0  0  0  0  0
   -0.9561    5.5172    9.4645 H   0  0  0  0  0  0
    1.5915    2.4423   11.0174 H   0  0  0  0  0  0
    0.3915    0.7743   12.4685 H   0  0  0  0  0  0
   -2.5681    2.0420   10.8527 H   0  0  0  0  0  0
   -1.1230    2.3601   11.8039 H   0  0  0  0  0  0
   -1.2042    0.9382   10.7348 H   0  0  0  0  0  0
  1  2  1  0  0  0
  1 32  1  0  0  0
  1 33  1  0  0  0
  1 34  1  0  0  0
  2  3  1  0  0  0
  3  4  2  0  0  0
  3 29  1  0  0  0
  4  5  1  0  0  0
  4 35  1  0  0  0
  5  6  2  0  0  0
  5 36  1  0  0  0
  6  7  1  0  0  0
  6 28  1  0  0  0
  7  8  1  0  0  0
  7 37  1  0  0  0
  8  9  2  0  0  0
  8 16  1  0  0  0
  9 10  1  0  0  0
 10 11  2  0  0  0
 10 17  1  0  0  0
 11 12  1  0  0  0
 11 38  1  0  0  0
 12 13  1  0  0  0
 12 16  1  0  0  0
 13 14  2  0  0  0
 13 39  1  0  0  0
 14 15  1  0  0  0
 14 40  1  0  0  0
 15 16  2  0  0  0
 17 18  2  0  0  0
 17 27  1  0  0  0
 18 19  1  0  0  0
 18 41  1  0  0  0
 19 20  2  0  0  0
 19 42  1  0  0  0
 20 21  1  0  0  0
 20 26  1  0  0  0
 21 22  1  0  0  0
 21 43  1  0  0  0
 22 23  2  0  0  0
 22 24  1  0  0  0
 24 25  1  0  0  0
 24 44  1  0  0  0
 24 45  1  0  0  0
 25 26  1  0  0  0
 26 27  2  0  0  0
 27 46  1  0  0  0
 28 29  2  0  0  0
 28 47  1  0  0  0
 29 30  1  0  0  0
 30 31  1  0  0  0
 31 48  1  0  0  0
 31 49  1  0  0  0
 31 50  1  0  0  0
M  END
> <s_m_entry_id>
699

> <IC50[nM]>
33.4

> <s_m_Source_Path>
/projects/mai/users/kmzp800_harry/pmx_colab/docking_jobs/syk

> <s_m_Source_File>
tnks2_lig.sdf

> <i_m_Source_File_Index>
20

> <s_m_job_name>
glide-dock_SP_tnks2_no_const

> <r_i_docking_score>
-6.38950608161763

> <r_i_glide_gscore>
-6.38950608161763

> <r_i_glide_emodel>
-62.315086435672

$$$$
CHEMBL3265008
                    3D
 Schrodinger Suite 2021-4.
 48 51  0  0  1  0            999 V2000
   -4.7385    5.8603    8.7973 C   0  0  0  0  0  0
   -4.0008    5.8027   10.0101 O   0  0  0  0  0  0
   -3.7029    4.5621   10.5362 C   0  0  0  0  0  0
   -4.2399    3.3509   10.0349 C   0  0  0  0  0  0
   -3.8883    2.1212   10.6167 C   0  0  0  0  0  0
   -2.9744    2.0667   11.6837 C   0  0  0  0  0  0
   -2.6815    0.8040   12.2253 N   0  0  0  0  0  0
   -1.5662    0.3744   12.9617 C   0  0  0  0  0  0
   -0.4548    1.0389   12.8579 N   0  0  0  0  0  0
    0.6629    0.6174   13.5378 C   0  0  0  0  0  0
    0.6725   -0.5086   14.3272 C   0  0  0  0  0  0
   -0.4914   -1.2009   14.4439 N   0  0  0  0  0  0
   -0.8181   -2.3352   15.1623 C   0  0  0  0  0  0
   -2.1402   -2.5821   14.9186 C   0  0  0  0  0  0
   -2.6734   -1.6304   14.0549 N   0  0  0  0  0  0
   -1.6702   -0.7956   13.7728 C   0  0  0  0  0  0
    1.8407    1.5014   13.4169 C   0  0  0  0  0  0
    3.1670    1.0159   13.4503 C   0  0  0  0  0  0
    4.2627    1.9040   13.4176 C   0  0  0  0  0  0
    4.0506    3.2959   13.3574 C   0  0  0  0  0  0
    5.1149    4.1352   13.3449 F   0  0  0  0  0  0
    2.7316    3.7949   13.2941 C   0  0  0  0  0  0
    1.6505    2.8957   13.3096 C   0  0  0  0  0  0
    2.4300    5.2546   13.1956 C   0  0  0  0  0  0
    1.7827    5.7028   12.2526 O   0  0  0  0  0  0
    2.8301    6.0039   14.2174 N   0  0  0  0  0  0
   -2.4507    3.2743   12.1944 C   0  0  0  0  0  0
   -2.8176    4.5251   11.6387 C   0  0  0  0  0  0
   -2.3517    5.7390   12.1075 O   0  0  0  0  0  0
   -1.5136    5.7531   13.2539 C   0  0  0  0  0  0
   -4.8098    6.8974    8.4705 H   0  0  0  0  0  0
   -4.2467    5.2968    8.0036 H   0  0  0  0  0  0
   -5.7524    5.4845    8.9344 H   0  0  0  0  0  0
   -4.9291    3.3411    9.2061 H   0  0  0  0  0  0
   -4.3106    1.2096   10.2176 H   0  0  0  0  0  0
   -3.1759    0.0255   11.8040 H   0  0  0  0  0  0
    1.5300   -0.8613   14.8925 H   0  0  0  0  0  0
   -0.0809   -2.8359   15.7756 H   0  0  0  0  0  0
   -2.7605   -3.3780   15.3079 H   0  0  0  0  0  0
    3.3548   -0.0446   13.5180 H   0  0  0  0  0  0
    5.2708    1.5188   13.4577 H   0  0  0  0  0  0
    0.6483    3.2955   13.2755 H   0  0  0  0  0  0
    2.5796    6.9892   14.2160 H   0  0  0  0  0  0
    3.3662    5.6055   14.9875 H   0  0  0  0  0  0
   -1.7607    3.2311   13.0180 H   0  0  0  0  0  0
   -1.1690    6.7706   13.4406 H   0  0  0  0  0  0
   -2.0462    5.4076   14.1418 H   0  0  0  0  0  0
   -0.6257    5.1436   13.1089 H   0  0  0  0  0  0
  1  2  1  0  0  0
  1 31  1  0  0  0
  1 32  1  0  0  0
  1 33  1  0  0  0
  2  3  1  0  0  0
  3  4  2  0  0  0
  3 28  1  0  0  0
  4  5  1  0  0  0
  4 34  1  0  0  0
  5  6  2  0  0  0
  5 35  1  0  0  0
  6  7  1  0  0  0
  6 27  1  0  0  0
  7  8  1  0  0  0
  7 36  1  0  0  0
  8  9  2  0  0  0
  8 16  1  0  0  0
  9 10  1  0  0  0
 10 11  2  0  0  0
 10 17  1  0  0  0
 11 12  1  0  0  0
 11 37  1  0  0  0
 12 13  1  0  0  0
 12 16  1  0  0  0
 13 14  2  0  0  0
 13 38  1  0  0  0
 14 15  1  0  0  0
 14 39  1  0  0  0
 15 16  2  0  0  0
 17 18  2  0  0  0
 17 23  1  0  0  0
 18 19  1  0  0  0
 18 40  1  0  0  0
 19 20  2  0  0  0
 19 41  1  0  0  0
 20 21  1  0  0  0
 20 22  1  0  0  0
 22 23  2  0  0  0
 22 24  1  0  0  0
 23 42  1  0  0  0
 24 25  2  0  0  0
 24 26  1  0  0  0
 26 43  1  0  0  0
 26 44  1  0  0  0
 27 28  2  0  0  0
 27 45  1  0  0  0
 28 29  1  0  0  0
 29 30  1  0  0  0
 30 46  1  0  0  0
 30 47  1  0  0  0
 30 48  1  0  0  0
M  END
> <s_m_entry_id>
700

> <IC50[nM]>
67.3

> <s_m_Source_Path>
/projects/mai/users/kmzp800_harry/pmx_colab/docking_jobs/syk

> <s_m_Source_File>
tnks2_lig.sdf

> <i_m_Source_File_Index>
21

> <s_m_job_name>
glide-dock_SP_tnks2_no_const

> <r_i_docking_score>
-7.54528255674277

> <r_i_glide_gscore>
-7.54528255674277

> <r_i_glide_emodel>
-73.2994926449082

$$$$
CHEMBL3265019
                    3D
 Schrodinger Suite 2021-4.
 46 50  0  0  1  0            999 V2000
   -4.1266   -1.6804   15.1567 C   0  0  0  0  0  0
   -3.4924   -0.8151   14.2238 O   0  0  0  0  0  0
   -2.1114   -0.8015   14.1832 C   0  0  0  0  0  0
   -1.2942   -1.6051   15.0162 C   0  0  0  0  0  0
    0.1064   -1.5154   14.9457 C   0  0  0  0  0  0
    0.7265   -0.6301   14.0439 C   0  0  0  0  0  0
    2.1308   -0.5986   14.0460 N   0  0  0  0  0  0
    3.0215    0.4621   13.8097 C   0  0  0  0  0  0
    2.6989    1.4477   13.0175 N   0  0  0  0  0  0
    3.5926    2.4781   12.8088 C   0  0  0  0  0  0
    4.8300    2.5166   13.4027 C   0  0  0  0  0  0
    5.1558    1.4951   14.2396 N   0  0  0  0  0  0
    6.2722    1.2579   15.0174 C   0  0  0  0  0  0
    6.0301    0.1105   15.7221 C   0  0  0  0  0  0
    4.7770   -0.3960   15.4174 N   0  0  0  0  0  0
    4.2715    0.4204   14.4907 C   0  0  0  0  0  0
    3.1537    3.5245   11.8602 C   0  0  0  0  0  0
    2.7805    3.1488   10.5501 C   0  0  0  0  0  0
    2.3220    4.0858    9.6042 C   0  0  0  0  0  0
    2.2375    5.4490    9.9474 C   0  0  0  0  0  0
    1.8247    6.5512    9.2180 N   0  0  0  0  0  0
    1.9589    7.6010    9.9704 N   0  0  0  0  0  0
    2.4301    7.2023   11.1815 N   0  0  0  0  0  0
    2.6357    5.8334   11.2473 C   0  0  0  0  0  0
    3.0973    4.8998   12.2030 C   0  0  0  0  0  0
   -0.0850    0.1445   13.1843 C   0  0  0  0  0  0
   -1.5011    0.0697   13.2528 C   0  0  0  0  0  0
   -2.3464    0.8163   12.4574 O   0  0  0  0  0  0
   -1.7734    1.5923   11.4139 C   0  0  0  0  0  0
   -5.2080   -1.5876   15.0572 H   0  0  0  0  0  0
   -3.8699   -1.4206   16.1847 H   0  0  0  0  0  0
   -3.8698   -2.7244   14.9720 H   0  0  0  0  0  0
   -1.7150   -2.2940   15.7329 H   0  0  0  0  0  0
    0.7039   -2.1314   15.6036 H   0  0  0  0  0  0
    2.5479   -1.2783   14.6684 H   0  0  0  0  0  0
    5.5541    3.3111   13.2575 H   0  0  0  0  0  0
    7.1089    1.9404   15.0137 H   0  0  0  0  0  0
    6.6596   -0.3947   16.4398 H   0  0  0  0  0  0
    2.8337    2.1089   10.2681 H   0  0  0  0  0  0
    2.0307    3.7600    8.6176 H   0  0  0  0  0  0
    2.7028    7.9062   11.8647 H   0  0  0  0  0  0
    3.3855    5.2298   13.1912 H   0  0  0  0  0  0
    0.3843    0.7958   12.4674 H   0  0  0  0  0  0
   -2.5694    2.0664   10.8400 H   0  0  0  0  0  0
   -1.1351    2.3844   11.8080 H   0  0  0  0  0  0
   -1.1979    0.9717   10.7253 H   0  0  0  0  0  0
  1  2  1  0  0  0
  1 30  1  0  0  0
  1 31  1  0  0  0
  1 32  1  0  0  0
  2  3  1  0  0  0
  3  4  2  0  0  0
  3 27  1  0  0  0
  4  5  1  0  0  0
  4 33  1  0  0  0
  5  6  2  0  0  0
  5 34  1  0  0  0
  6  7  1  0  0  0
  6 26  1  0  0  0
  7  8  1  0  0  0
  7 35  1  0  0  0
  8  9  2  0  0  0
  8 16  1  0  0  0
  9 10  1  0  0  0
 10 11  2  0  0  0
 10 17  1  0  0  0
 11 12  1  0  0  0
 11 36  1  0  0  0
 12 13  1  0  0  0
 12 16  1  0  0  0
 13 14  2  0  0  0
 13 37  1  0  0  0
 14 15  1  0  0  0
 14 38  1  0  0  0
 15 16  2  0  0  0
 17 18  2  0  0  0
 17 25  1  0  0  0
 18 19  1  0  0  0
 18 39  1  0  0  0
 19 20  2  0  0  0
 19 40  1  0  0  0
 20 21  1  0  0  0
 20 24  1  0  0  0
 21 22  2  0  0  0
 22 23  1  0  0  0
 23 24  1  0  0  0
 23 41  1  0  0  0
 24 25  2  0  0  0
 25 42  1  0  0  0
 26 27  2  0  0  0
 26 43  1  0  0  0
 27 28  1  0  0  0
 28 29  1  0  0  0
 29 44  1  0  0  0
 29 45  1  0  0  0
 29 46  1  0  0  0
M  END
> <s_m_entry_id>
701

> <IC50[nM]>
12.6

> <s_m_Source_Path>
/projects/mai/users/kmzp800_harry/pmx_colab/docking_jobs/syk

> <s_m_Source_File>
tnks2_lig.sdf

> <i_m_Source_File_Index>
22

> <s_m_job_name>
glide-dock_SP_tnks2_no_const

> <r_i_docking_score>
-7.14914449666738

> <r_i_glide_gscore>
-7.14914449666738

> <r_i_glide_emodel>
-67.00728166691

$$$$
CHEMBL3265013
                    3D
 Schrodinger Suite 2021-4.
 51 54  0  0  1  0            999 V2000
   -3.8482    6.2247    8.3672 C   0  0  0  0  0  0
   -3.4927    5.0123    9.0179 O   0  0  0  0  0  0
   -2.1809    4.8313    9.4027 C   0  0  0  0  0  0
   -1.1410    5.7365    9.0811 C   0  0  0  0  0  0
    0.1748    5.4952    9.5070 C   0  0  0  0  0  0
    0.4896    4.3518   10.2653 C   0  0  0  0  0  0
    1.8359    4.2003   10.6474 N   0  0  0  0  0  0
    2.4482    3.4373   11.6598 C   0  0  0  0  0  0
    1.8335    2.4325   12.2173 N   0  0  0  0  0  0
    2.4568    1.6988   13.2050 C   0  0  0  0  0  0
    3.7348    1.9925   13.6260 C   0  0  0  0  0  0
    4.3748    3.0497   13.0544 N   0  0  0  0  0  0
    5.6249    3.6038   13.2681 C   0  0  0  0  0  0
    5.7461    4.6455   12.3883 C   0  0  0  0  0  0
    4.5988    4.7730   11.6148 N   0  0  0  0  0  0
    3.7700    3.8142   12.0344 C   0  0  0  0  0  0
    1.6582    0.5761   13.7786 C   0  0  0  0  0  0
    2.2748   -0.5150   14.4330 C   0  0  0  0  0  0
    1.5131   -1.5703   14.9737 C   0  0  0  0  0  0
    0.1041   -1.5854   14.8654 C   0  0  0  0  0  0
   -0.6734   -2.7708   15.3857 C   0  0  0  0  0  0
   -1.5668   -3.2893   14.7194 O   0  0  0  0  0  0
   -0.3698   -3.1959   16.6140 N   0  0  0  0  0  0
   -0.5335   -0.4938   14.2154 C   0  0  0  0  0  0
   -2.0470   -0.4144   14.0548 C   0  0  0  0  0  0
    0.2444    0.5635   13.6946 C   0  0  0  0  0  0
   -0.5452    3.4375   10.5730 C   0  0  0  0  0  0
   -1.8787    3.6720   10.1518 C   0  0  0  0  0  0
   -2.9266    2.8177   10.4325 O   0  0  0  0  0  0
   -2.6728    1.6916   11.2578 C   0  0  0  0  0  0
   -4.9165    6.2155    8.1528 H   0  0  0  0  0  0
   -3.6473    7.0871    9.0032 H   0  0  0  0  0  0
   -3.3256    6.3464    7.4168 H   0  0  0  0  0  0
   -1.3268    6.6284    8.5038 H   0  0  0  0  0  0
    0.9485    6.2050    9.2492 H   0  0  0  0  0  0
    2.4438    4.9500   10.3422 H   0  0  0  0  0  0
    4.2659    1.4573   14.4040 H   0  0  0  0  0  0
    6.2986    3.1920   14.0019 H   0  0  0  0  0  0
    6.5832    5.3135   12.2368 H   0  0  0  0  0  0
    3.3523   -0.5625   14.5163 H   0  0  0  0  0  0
    2.0259   -2.3941   15.4472 H   0  0  0  0  0  0
   -0.8953   -3.9631   17.0173 H   0  0  0  0  0  0
    0.3766   -2.7676   17.1553 H   0  0  0  0  0  0
   -2.3645    0.6121   13.9075 H   0  0  0  0  0  0
   -2.3625   -1.0012   13.1927 H   0  0  0  0  0  0
   -2.5644   -0.7809   14.9400 H   0  0  0  0  0  0
   -0.2605    1.3880   13.2144 H   0  0  0  0  0  0
   -0.3120    2.5442   11.1216 H   0  0  0  0  0  0
   -3.6018    1.1469   11.4170 H   0  0  0  0  0  0
   -1.9608    1.0034   10.8004 H   0  0  0  0  0  0
   -2.2996    2.0066   12.2318 H   0  0  0  0  0  0
  1  2  1  0  0  0
  1 31  1  0  0  0
  1 32  1  0  0  0
  1 33  1  0  0  0
  2  3  1  0  0  0
  3  4  2  0  0  0
  3 28  1  0  0  0
  4  5  1  0  0  0
  4 34  1  0  0  0
  5  6  2  0  0  0
  5 35  1  0  0  0
  6  7  1  0  0  0
  6 27  1  0  0  0
  7  8  1  0  0  0
  7 36  1  0  0  0
  8  9  2  0  0  0
  8 16  1  0  0  0
  9 10  1  0  0  0
 10 11  2  0  0  0
 10 17  1  0  0  0
 11 12  1  0  0  0
 11 37  1  0  0  0
 12 13  1  0  0  0
 12 16  1  0  0  0
 13 14  2  0  0  0
 13 38  1  0  0  0
 14 15  1  0  0  0
 14 39  1  0  0  0
 15 16  2  0  0  0
 17 18  2  0  0  0
 17 26  1  0  0  0
 18 19  1  0  0  0
 18 40  1  0  0  0
 19 20  2  0  0  0
 19 41  1  0  0  0
 20 21  1  0  0  0
 20 24  1  0  0  0
 21 22  2  0  0  0
 21 23  1  0  0  0
 23 42  1  0  0  0
 23 43  1  0  0  0
 24 25  1  0  0  0
 24 26  2  0  0  0
 25 44  1  0  0  0
 25 45  1  0  0  0
 25 46  1  0  0  0
 26 47  1  0  0  0
 27 28  2  0  0  0
 27 48  1  0  0  0
 28 29  1  0  0  0
 29 30  1  0  0  0
 30 49  1  0  0  0
 30 50  1  0  0  0
 30 51  1  0  0  0
M  END
> <s_m_entry_id>
702

> <IC50[nM]>
64.1

> <s_m_Source_Path>
/projects/mai/users/kmzp800_harry/pmx_colab/docking_jobs/syk

> <s_m_Source_File>
tnks2_lig.sdf

> <i_m_Source_File_Index>
23

> <s_m_job_name>
glide-dock_SP_tnks2_no_const

> <r_i_docking_score>
-7.25512053997768

> <r_i_glide_gscore>
-7.25512053997768

> <r_i_glide_emodel>
-70.2810912514482

$$$$
CHEMBL3265015
                    3D
 Schrodinger Suite 2021-4.
 51 54  0  0  1  0            999 V2000
   -3.6834    4.8824    8.5475 C   0  0  0  0  0  0
   -3.0614    5.0378    9.8113 O   0  0  0  0  0  0
   -1.6954    4.8671    9.9000 C   0  0  0  0  0  0
   -0.8739    4.4521    8.8208 C   0  0  0  0  0  0
    0.5110    4.2848    8.9992 C   0  0  0  0  0  0
    1.0943    4.5239   10.2541 C   0  0  0  0  0  0
    2.4664    4.3140   10.4308 N   0  0  0  0  0  0
    3.0419    3.6228   11.5031 C   0  0  0  0  0  0
    2.3701    2.6333   12.0171 N   0  0  0  0  0  0
    2.8553    1.9617   13.1137 C   0  0  0  0  0  0
    4.0781    2.2728   13.6679 C   0  0  0  0  0  0
    4.7941    3.2881   13.1094 N   0  0  0  0  0  0
    6.0301    3.8247   13.4179 C   0  0  0  0  0  0
    6.2736    4.8040   12.4938 C   0  0  0  0  0  0
    5.1981    4.9439   11.6266 N   0  0  0  0  0  0
    4.3169    4.0125   11.9938 C   0  0  0  0  0  0
    1.9996    0.8585   13.6370 C   0  0  0  0  0  0
    2.6198   -0.3205   14.1187 C   0  0  0  0  0  0
    1.8735   -1.4076   14.6177 C   0  0  0  0  0  0
    0.4658   -1.3504   14.6351 C   0  0  0  0  0  0
   -0.1680   -0.1923   14.1556 C   0  0  0  0  0  0
    0.5749    0.9134   13.6950 C   0  0  0  0  0  0
   -0.2135    2.1476   13.2988 C   0  0  0  0  0  0
   -0.3705   -2.5046   15.1035 C   0  0  0  0  0  0
   -1.4033   -2.8191   14.5164 O   0  0  0  0  0  0
    0.0241   -3.1183   16.2174 N   0  0  0  0  0  0
    0.2877    4.9628   11.3245 C   0  0  0  0  0  0
   -1.1102    5.1259   11.1589 C   0  0  0  0  0  0
   -1.9624    5.5208   12.1695 O   0  0  0  0  0  0
   -1.4085    5.8121   13.4409 C   0  0  0  0  0  0
   -4.7531    5.0632    8.6511 H   0  0  0  0  0  0
   -3.2998    5.6042    7.8242 H   0  0  0  0  0  0
   -3.5583    3.8691    8.1640 H   0  0  0  0  0  0
   -1.2805    4.2443    7.8436 H   0  0  0  0  0  0
    1.1235    3.9481    8.1771 H   0  0  0  0  0  0
    3.0684    5.0200   10.0309 H   0  0  0  0  0  0
    4.5098    1.7687   14.5251 H   0  0  0  0  0  0
    6.6212    3.4244   14.2268 H   0  0  0  0  0  0
    7.1507    5.4260   12.3775 H   0  0  0  0  0  0
    3.6959   -0.3982   14.1008 H   0  0  0  0  0  0
    2.3893   -2.2922   14.9616 H   0  0  0  0  0  0
   -1.2474   -0.1411   14.1673 H   0  0  0  0  0  0
    0.2817    3.0431   13.6704 H   0  0  0  0  0  0
   -0.3064    2.2118   12.2146 H   0  0  0  0  0  0
   -1.2168    2.1313   13.7210 H   0  0  0  0  0  0
   -0.5336   -3.8773   16.5846 H   0  0  0  0  0  0
    0.8304   -2.7968   16.7398 H   0  0  0  0  0  0
    0.7634    5.1547   12.2741 H   0  0  0  0  0  0
   -2.2162    6.0039   14.1467 H   0  0  0  0  0  0
   -0.8420    4.9725   13.8368 H   0  0  0  0  0  0
   -0.7673    6.6941   13.4071 H   0  0  0  0  0  0
  1  2  1  0  0  0
  1 31  1  0  0  0
  1 32  1  0  0  0
  1 33  1  0  0  0
  2  3  1  0  0  0
  3  4  2  0  0  0
  3 28  1  0  0  0
  4  5  1  0  0  0
  4 34  1  0  0  0
  5  6  2  0  0  0
  5 35  1  0  0  0
  6  7  1  0  0  0
  6 27  1  0  0  0
  7  8  1  0  0  0
  7 36  1  0  0  0
  8  9  2  0  0  0
  8 16  1  0  0  0
  9 10  1  0  0  0
 10 11  2  0  0  0
 10 17  1  0  0  0
 11 12  1  0  0  0
 11 37  1  0  0  0
 12 13  1  0  0  0
 12 16  1  0  0  0
 13 14  2  0  0  0
 13 38  1  0  0  0
 14 15  1  0  0  0
 14 39  1  0  0  0
 15 16  2  0  0  0
 17 18  2  0  0  0
 17 22  1  0  0  0
 18 19  1  0  0  0
 18 40  1  0  0  0
 19 20  2  0  0  0
 19 41  1  0  0  0
 20 21  1  0  0  0
 20 24  1  0  0  0
 21 22  2  0  0  0
 21 42  1  0  0  0
 22 23  1  0  0  0
 23 43  1  0  0  0
 23 44  1  0  0  0
 23 45  1  0  0  0
 24 25  2  0  0  0
 24 26  1  0  0  0
 26 46  1  0  0  0
 26 47  1  0  0  0
 27 28  2  0  0  0
 27 48  1  0  0  0
 28 29  1  0  0  0
 29 30  1  0  0  0
 30 49  1  0  0  0
 30 50  1  0  0  0
 30 51  1  0  0  0
M  END
> <s_m_entry_id>
703

> <IC50[nM]>
113

> <s_m_Source_Path>
/projects/mai/users/kmzp800_harry/pmx_colab/docking_jobs/syk

> <s_m_Source_File>
tnks2_lig.sdf

> <i_m_Source_File_Index>
24

> <s_m_job_name>
glide-dock_SP_tnks2_no_const

> <r_i_docking_score>
-7.5400036243405

> <r_i_glide_gscore>
-7.5400036243405

> <r_i_glide_emodel>
-71.9641764353566

$$$$
CHEMBL3264996
                    3D
 Schrodinger Suite 2021-4.
 64 68  0  0  1  0            999 V2000
   -8.9808   -3.8306   16.2958 C   0  0  0  0  0  0
   -7.6344   -3.4534   16.0692 O   0  0  0  0  0  0
   -7.2163   -3.1698   14.8193 C   0  0  0  0  0  0
   -7.9477   -3.1963   13.8285 O   0  0  0  0  0  0
   -5.7752   -2.7910   14.7623 C   0  0  0  0  0  0
   -4.9662   -2.7767   15.9238 C   0  0  0  0  0  0
   -3.6141   -2.3967   15.8471 C   0  0  0  0  0  0
   -3.0528   -1.9908   14.6212 C   0  0  0  0  0  0
   -1.6913   -1.5854   14.6118 N   0  0  0  0  0  0
   -1.1228   -0.6605   13.8173 C   0  0  0  0  0  0
   -1.7567    0.0302   13.0217 O   0  0  0  0  0  0
    0.3584   -0.4485   14.0034 C   0  0  0  0  0  0
    1.1611   -1.3930   14.6863 C   0  0  0  0  0  0
    2.5452   -1.1882   14.7982 C   0  0  0  0  0  0
    3.1453   -0.0558   14.2163 C   0  0  0  0  0  0
    2.3763    0.9150   13.5349 C   0  0  0  0  0  0
    0.9787    0.6951   13.4435 C   0  0  0  0  0  0
    3.0209    2.1129   12.9361 C   0  0  0  0  0  0
    4.2537    2.5772   13.3399 C   0  0  0  0  0  0
    4.7840    3.6368   12.6703 N   0  0  0  0  0  0
    5.9880    4.3035   12.8044 C   0  0  0  0  0  0
    6.0046    5.2679   11.8337 C   0  0  0  0  0  0
    4.8301    5.2552   11.0948 N   0  0  0  0  0  0
    4.0990    4.2624   11.6010 C   0  0  0  0  0  0
    2.8181    3.7348   11.2891 C   0  0  0  0  0  0
    2.0677    4.3004   10.2531 N   0  0  0  0  0  0
    0.6739    4.2849   10.1504 C   0  0  0  0  0  0
    0.0661    3.9731    8.9247 C   0  0  0  0  0  0
   -1.3341    3.8909    8.8386 C   0  0  0  0  0  0
   -2.1512    4.1669    9.9659 C   0  0  0  0  0  0
   -3.5299    4.1086    9.9421 O   0  0  0  0  0  0
   -4.1751    3.8882    8.6959 C   0  0  0  0  0  0
   -1.5429    4.5257   11.1912 C   0  0  0  0  0  0
   -2.3707    4.8155   12.2574 O   0  0  0  0  0  0
   -1.7831    5.3970   13.4137 C   0  0  0  0  0  0
   -0.1292    4.5733   11.2721 C   0  0  0  0  0  0
    2.3151    2.7133   11.9209 N   0  0  0  0  0  0
   -3.8459   -2.0382   13.4506 C   0  0  0  0  0  0
   -5.1952   -2.4330   13.5231 C   0  0  0  0  0  0
   -9.1424   -3.9956   17.3609 H   0  0  0  0  0  0
   -9.2183   -4.7552   15.7688 H   0  0  0  0  0  0
   -9.6661   -3.0500   15.9645 H   0  0  0  0  0  0
   -5.3652   -3.0572   16.8902 H   0  0  0  0  0  0
   -3.0211   -2.3997   16.7517 H   0  0  0  0  0  0
   -1.0964   -1.9911   15.3250 H   0  0  0  0  0  0
    0.7416   -2.2847   15.1270 H   0  0  0  0  0  0
    3.1535   -1.9095   15.3227 H   0  0  0  0  0  0
    4.2142    0.0548   14.3050 H   0  0  0  0  0  0
    0.3657    1.4158   12.9231 H   0  0  0  0  0  0
    4.8443    2.1586   14.1477 H   0  0  0  0  0  0
    6.7108    4.0058   13.5478 H   0  0  0  0  0  0
    6.7845    5.9823   11.6103 H   0  0  0  0  0  0
    2.5645    4.9713    9.6800 H   0  0  0  0  0  0
    0.6702    3.7491    8.0567 H   0  0  0  0  0  0
   -1.7595    3.6041    7.8890 H   0  0  0  0  0  0
   -5.2546    3.9337    8.8402 H   0  0  0  0  0  0
   -3.9139    4.6557    7.9667 H   0  0  0  0  0  0
   -3.9396    2.9034    8.2896 H   0  0  0  0  0  0
   -2.5552    5.6046   14.1533 H   0  0  0  0  0  0
   -1.0587    4.7249   13.8735 H   0  0  0  0  0  0
   -1.2884    6.3395   13.1764 H   0  0  0  0  0  0
    0.3710    4.8270   12.1937 H   0  0  0  0  0  0
   -3.4293   -1.7754   12.4915 H   0  0  0  0  0  0
   -5.7803   -2.4531   12.6162 H   0  0  0  0  0  0
  1  2  1  0  0  0
  1 40  1  0  0  0
  1 41  1  0  0  0
  1 42  1  0  0  0
  2  3  1  0  0  0
  3  4  2  0  0  0
  3  5  1  0  0  0
  5  6  2  0  0  0
  5 39  1  0  0  0
  6  7  1  0  0  0
  6 43  1  0  0  0
  7  8  2  0  0  0
  7 44  1  0  0  0
  8  9  1  0  0  0
  8 38  1  0  0  0
  9 10  1  0  0  0
  9 45  1  0  0  0
 10 11  2  0  0  0
 10 12  1  0  0  0
 12 13  2  0  0  0
 12 17  1  0  0  0
 13 14  1  0  0  0
 13 46  1  0  0  0
 14 15  2  0  0  0
 14 47  1  0  0  0
 15 16  1  0  0  0
 15 48  1  0  0  0
 16 17  2  0  0  0
 16 18  1  0  0  0
 17 49  1  0  0  0
 18 19  2  0  0  0
 18 37  1  0  0  0
 19 20  1  0  0  0
 19 50  1  0  0  0
 20 21  1  0  0  0
 20 24  1  0  0  0
 21 22  2  0  0  0
 21 51  1  0  0  0
 22 23  1  0  0  0
 22 52  1  0  0  0
 23 24  2  0  0  0
 24 25  1  0  0  0
 25 26  1  0  0  0
 25 37  2  0  0  0
 26 27  1  0  0  0
 26 53  1  0  0  0
 27 28  2  0  0  0
 27 36  1  0  0  0
 28 29  1  0  0  0
 28 54  1  0  0  0
 29 30  2  0  0  0
 29 55  1  0  0  0
 30 31  1  0  0  0
 30 33  1  0  0  0
 31 32  1  0  0  0
 32 56  1  0  0  0
 32 57  1  0  0  0
 32 58  1  0  0  0
 33 34  1  0  0  0
 33 36  2  0  0  0
 34 35  1  0  0  0
 35 59  1  0  0  0
 35 60  1  0  0  0
 35 61  1  0  0  0
 36 62  1  0  0  0
 38 39  2  0  0  0
 38 63  1  0  0  0
 39 64  1  0  0  0
M  END
> <s_m_entry_id>
704

> <IC50[nM]>
15.2

> <s_m_Source_Path>
/projects/mai/users/kmzp800_harry/pmx_colab/docking_jobs/syk

> <s_m_Source_File>
tnks2_lig.sdf

> <i_m_Source_File_Index>
25

> <s_m_job_name>
glide-dock_SP_tnks2_no_const

> <r_i_docking_score>
-6.17229439813744

> <r_i_glide_gscore>
-6.17229439813744

> <r_i_glide_emodel>
-74.0478697593356

$$$$
CHEMBL3265022
                    3D
 Schrodinger Suite 2021-4.
 50 54  0  0  1  0            999 V2000
   -3.9504    4.4143    8.6851 C   0  0  0  0  0  0
   -3.3579    4.4634    9.9746 O   0  0  0  0  0  0
   -1.9855    4.3752   10.0672 C   0  0  0  0  0  0
   -1.1447    4.0748    8.9649 C   0  0  0  0  0  0
    0.2511    4.0034    9.1234 C   0  0  0  0  0  0
    0.8245    4.1823   10.3939 C   0  0  0  0  0  0
    2.2124    4.0692   10.5502 N   0  0  0  0  0  0
    2.8719    3.4451   11.6164 C   0  0  0  0  0  0
    2.2807    2.4382   12.1957 N   0  0  0  0  0  0
    2.9053    1.7771   13.2276 C   0  0  0  0  0  0
    4.1410    2.1646   13.6986 C   0  0  0  0  0  0
    4.7499    3.2199   13.0983 N   0  0  0  0  0  0
    5.9615    3.8369   13.3384 C   0  0  0  0  0  0
    6.0956    4.8084   12.3848 C   0  0  0  0  0  0
    4.9701    4.8645   11.5711 N   0  0  0  0  0  0
    4.1581    3.9028   12.0124 C   0  0  0  0  0  0
    2.1599    0.6224   13.7923 C   0  0  0  0  0  0
    2.8287   -0.3962   14.5184 C   0  0  0  0  0  0
    2.1272   -1.4568   15.1214 C   0  0  0  0  0  0
    0.7289   -1.5739   14.9809 C   0  0  0  0  0  0
   -0.3008   -2.4708   15.4096 C   0  0  0  0  0  0
   -1.4759   -2.1093   14.9507 N   0  0  0  0  0  0
   -1.2615   -0.9743   14.2300 N   0  0  0  0  0  0
   -2.3906   -0.3375   13.5858 C   0  0  0  0  0  0
    0.0678   -0.5785   14.2164 C   0  0  0  0  0  0
    0.7556    0.5040   13.6431 C   0  0  0  0  0  0
   -0.0042    4.4934   11.4920 C   0  0  0  0  0  0
   -1.4076    4.6104   11.3370 C   0  0  0  0  0  0
   -2.2577    4.9405   12.3730 O   0  0  0  0  0  0
   -1.6784    5.5169   13.5374 C   0  0  0  0  0  0
   -5.0284    4.5478    8.7757 H   0  0  0  0  0  0
   -3.5716    5.2143    8.0472 H   0  0  0  0  0  0
   -3.7775    3.4516    8.2030 H   0  0  0  0  0  0
   -1.5464    3.8989    7.9813 H   0  0  0  0  0  0
    0.8742    3.7754    8.2716 H   0  0  0  0  0  0
    2.7749    4.7291   10.0337 H   0  0  0  0  0  0
    4.6677    1.6941   14.5224 H   0  0  0  0  0  0
    6.6169    3.4930   14.1252 H   0  0  0  0  0  0
    6.9216    5.4884   12.2180 H   0  0  0  0  0  0
    3.8991   -0.3632   14.6404 H   0  0  0  0  0  0
    2.6644   -2.1945   15.6911 H   0  0  0  0  0  0
   -0.2122   -3.3573   16.0217 H   0  0  0  0  0  0
   -2.2185    0.7349   13.5122 H   0  0  0  0  0  0
   -2.5150   -0.7502   12.5856 H   0  0  0  0  0  0
   -3.2969   -0.5145   14.1656 H   0  0  0  0  0  0
    0.2009    1.2511   13.0926 H   0  0  0  0  0  0
    0.4620    4.6493   12.4527 H   0  0  0  0  0  0
   -2.4701    5.8162   14.2215 H   0  0  0  0  0  0
   -1.0435    4.8060   14.0651 H   0  0  0  0  0  0
   -1.0920    6.4055   13.2998 H   0  0  0  0  0  0
  1  2  1  0  0  0
  1 31  1  0  0  0
  1 32  1  0  0  0
  1 33  1  0  0  0
  2  3  1  0  0  0
  3  4  2  0  0  0
  3 28  1  0  0  0
  4  5  1  0  0  0
  4 34  1  0  0  0
  5  6  2  0  0  0
  5 35  1  0  0  0
  6  7  1  0  0  0
  6 27  1  0  0  0
  7  8  1  0  0  0
  7 36  1  0  0  0
  8  9  2  0  0  0
  8 16  1  0  0  0
  9 10  1  0  0  0
 10 11  2  0  0  0
 10 17  1  0  0  0
 11 12  1  0  0  0
 11 37  1  0  0  0
 12 13  1  0  0  0
 12 16  1  0  0  0
 13 14  2  0  0  0
 13 38  1  0  0  0
 14 15  1  0  0  0
 14 39  1  0  0  0
 15 16  2  0  0  0
 17 18  2  0  0  0
 17 26  1  0  0  0
 18 19  1  0  0  0
 18 40  1  0  0  0
 19 20  2  0  0  0
 19 41  1  0  0  0
 20 21  1  0  0  0
 20 25  1  0  0  0
 21 22  2  0  0  0
 21 42  1  0  0  0
 22 23  1  0  0  0
 23 24  1  0  0  0
 23 25  1  0  0  0
 24 43  1  0  0  0
 24 44  1  0  0  0
 24 45  1  0  0  0
 25 26  2  0  0  0
 26 46  1  0  0  0
 27 28  2  0  0  0
 27 47  1  0  0  0
 28 29  1  0  0  0
 29 30  1  0  0  0
 30 48  1  0  0  0
 30 49  1  0  0  0
 30 50  1  0  0  0
M  END
> <s_m_entry_id>
705

> <IC50[nM]>
12.3

> <s_m_Source_Path>
/projects/mai/users/kmzp800_harry/pmx_colab/docking_jobs/syk

> <s_m_Source_File>
tnks2_lig.sdf

> <i_m_Source_File_Index>
26

> <s_m_job_name>
glide-dock_SP_tnks2_no_const

> <r_i_docking_score>
-6.81514498646229

> <r_i_glide_gscore>
-6.81514498646229

> <r_i_glide_emodel>
-64.2552898269573

$$$$
CHEMBL3264995
                    3D
 Schrodinger Suite 2021-4.
 60 64  0  0  1  0            999 V2000
    8.3410    4.8073   13.3977 C   0  0  0  0  0  0
    7.1405    4.4032   14.0294 O   0  0  0  0  0  0
    6.0287    4.2542   13.2303 C   0  0  0  0  0  0
    5.6840    5.1755   12.2171 C   0  0  0  0  0  0
    4.4741    5.0470   11.5138 C   0  0  0  0  0  0
    3.6024    3.9723   11.7727 C   0  0  0  0  0  0
    2.3902    3.9437   11.0574 N   0  0  0  0  0  0
    1.1646    3.3178   11.3445 C   0  0  0  0  0  0
    1.1020    2.4048   12.2666 N   0  0  0  0  0  0
   -0.0728    1.7366   12.5191 C   0  0  0  0  0  0
   -1.2360    2.0275   11.8426 C   0  0  0  0  0  0
   -1.1783    2.9863   10.8785 N   0  0  0  0  0  0
   -2.1442    3.4874   10.0248 C   0  0  0  0  0  0
   -1.5217    4.4194    9.2388 C   0  0  0  0  0  0
   -0.1814    4.5385    9.5761 N   0  0  0  0  0  0
    0.0212    3.6739   10.5732 C   0  0  0  0  0  0
    0.0319    0.6574   13.5328 C   0  0  0  0  0  0
    1.1105    0.6364   14.4479 C   0  0  0  0  0  0
    1.2635   -0.3965   15.3861 C   0  0  0  0  0  0
    0.3291   -1.4342   15.4352 C   0  0  0  0  0  0
   -0.7746   -1.4432   14.5547 C   0  0  0  0  0  0
   -0.9121   -0.3951   13.6124 C   0  0  0  0  0  0
   -1.7761   -2.5605   14.6020 C   0  0  0  0  0  0
   -2.9014   -2.4139   14.1227 O   0  0  0  0  0  0
   -1.3010   -3.6837   15.1655 N   0  0  0  0  0  0
   -1.7866   -5.0091   15.1150 C   0  0  0  0  0  0
   -0.8949   -6.0060   15.5522 C   0  0  0  0  0  0
   -1.2292   -7.3633   15.4196 C   0  0  0  0  0  0
   -2.4538   -7.7432   14.8317 C   0  0  0  0  0  0
   -3.3829   -6.7413   14.4766 C   0  0  0  0  0  0
   -3.0582   -5.3782   14.6177 C   0  0  0  0  0  0
   -2.7439   -9.1887   14.5506 C   0  0  0  0  0  0
   -1.9699  -10.0574   15.0170 O   0  0  0  0  0  0
   -3.7224   -9.4617   13.8173 O   0  5  0  0  0  0
    4.0075    2.9906   12.7088 C   0  0  0  0  0  0
    5.2050    3.1321   13.4517 C   0  0  0  0  0  0
    5.6318    2.2145   14.3891 O   0  0  0  0  0  0
    5.0995    0.8987   14.3279 C   0  0  0  0  0  0
    9.1824    4.4343   13.9805 H   0  0  0  0  0  0
    8.4367    4.4097   12.3826 H   0  0  0  0  0  0
    8.4302    5.8938   13.3985 H   0  0  0  0  0  0
    6.3314    6.0039   11.9905 H   0  0  0  0  0  0
    4.2067    5.8009   10.7881 H   0  0  0  0  0  0
    2.2876    4.6669   10.3597 H   0  0  0  0  0  0
   -2.1847    1.5328   12.0010 H   0  0  0  0  0  0
   -3.1558    3.1188   10.0571 H   0  0  0  0  0  0
   -1.9408    5.0215    8.4457 H   0  0  0  0  0  0
    1.8442    1.4252   14.4396 H   0  0  0  0  0  0
    2.0996   -0.3958   16.0707 H   0  0  0  0  0  0
    0.4768   -2.2012   16.1837 H   0  0  0  0  0  0
   -1.7425   -0.4237   12.9232 H   0  0  0  0  0  0
   -0.3735   -3.5981   15.5513 H   0  0  0  0  0  0
    0.0683   -5.7424   15.9654 H   0  0  0  0  0  0
   -0.5181   -8.1063   15.7422 H   0  0  0  0  0  0
   -4.3467   -7.0109   14.0725 H   0  0  0  0  0  0
   -3.7826   -4.6431   14.3048 H   0  0  0  0  0  0
    3.3965    2.1226   12.8771 H   0  0  0  0  0  0
    5.6422    0.2585   15.0248 H   0  0  0  0  0  0
    4.0491    0.8754   14.6175 H   0  0  0  0  0  0
    5.2076    0.4696   13.3296 H   0  0  0  0  0  0
  1  2  1  0  0  0
  1 39  1  0  0  0
  1 40  1  0  0  0
  1 41  1  0  0  0
  2  3  1  0  0  0
  3  4  2  0  0  0
  3 36  1  0  0  0
  4  5  1  0  0  0
  4 42  1  0  0  0
  5  6  2  0  0  0
  5 43  1  0  0  0
  6  7  1  0  0  0
  6 35  1  0  0  0
  7  8  1  0  0  0
  7 44  1  0  0  0
  8  9  2  0  0  0
  8 16  1  0  0  0
  9 10  1  0  0  0
 10 11  2  0  0  0
 10 17  1  0  0  0
 11 12  1  0  0  0
 11 45  1  0  0  0
 12 13  1  0  0  0
 12 16  1  0  0  0
 13 14  2  0  0  0
 13 46  1  0  0  0
 14 15  1  0  0  0
 14 47  1  0  0  0
 15 16  2  0  0  0
 17 18  2  0  0  0
 17 22  1  0  0  0
 18 19  1  0  0  0
 18 48  1  0  0  0
 19 20  2  0  0  0
 19 49  1  0  0  0
 20 21  1  0  0  0
 20 50  1  0  0  0
 21 22  2  0  0  0
 21 23  1  0  0  0
 22 51  1  0  0  0
 23 24  2  0  0  0
 23 25  1  0  0  0
 25 26  1  0  0  0
 25 52  1  0  0  0
 26 27  2  0  0  0
 26 31  1  0  0  0
 27 28  1  0  0  0
 27 53  1  0  0  0
 28 29  2  0  0  0
 28 54  1  0  0  0
 29 30  1  0  0  0
 29 32  1  0  0  0
 30 31  2  0  0  0
 30 55  1  0  0  0
 31 56  1  0  0  0
 32 33  2  0  0  0
 32 34  1  0  0  0
 35 36  2  0  0  0
 35 57  1  0  0  0
 36 37  1  0  0  0
 37 38  1  0  0  0
 38 58  1  0  0  0
 38 59  1  0  0  0
 38 60  1  0  0  0
M  CHG  1  34  -1
M  END
> <s_m_entry_id>
706

> <IC50[nM]>
0.84

> <s_m_Source_Path>
/projects/mai/users/kmzp800_harry/pmx_colab/docking_jobs/syk

> <s_m_Source_File>
tnks2_lig.sdf

> <i_m_Source_File_Index>
27

> <s_m_job_name>
glide-dock_SP_tnks2_no_const

> <r_i_docking_score>
-7.09356602651376

> <r_i_glide_gscore>
-7.09356602651376

> <r_i_glide_emodel>
-87.0453251416833

$$$$
CHEMBL3265001
                    3D
 Schrodinger Suite 2021-4.
 62 67  0  0  1  0            999 V2000
   -4.1337    3.8491    8.9539 C   0  0  0  0  0  0
   -3.4573    4.0633   10.1844 O   0  0  0  0  0  0
   -2.0759    4.0557   10.1776 C   0  0  0  0  0  0
   -1.2992    3.8021    9.0189 C   0  0  0  0  0  0
    0.1055    3.8065    9.0798 C   0  0  0  0  0  0
    0.7559    4.0231   10.3059 C   0  0  0  0  0  0
    2.1534    4.0031   10.3536 N   0  0  0  0  0  0
    2.9497    3.5313   11.4041 C   0  0  0  0  0  0
    2.5334    2.4986   12.0832 N   0  0  0  0  0  0
    3.3067    1.9866   13.1033 C   0  0  0  0  0  0
    4.5192    2.5478   13.4419 C   0  0  0  0  0  0
    4.9478    3.6248   12.7310 N   0  0  0  0  0  0
    6.1038    4.3784   12.8111 C   0  0  0  0  0  0
    6.0264    5.3102   11.8176 C   0  0  0  0  0  0
    4.8298    5.2027   11.1189 N   0  0  0  0  0  0
    4.1915    4.1682   11.6698 C   0  0  0  0  0  0
    2.7474    0.7980   13.8091 C   0  0  0  0  0  0
    3.5640   -0.0330   14.6159 C   0  0  0  0  0  0
    3.0130   -1.1005   15.3499 C   0  0  0  0  0  0
    1.6417   -1.3915   15.2571 C   0  0  0  0  0  0
    0.8088   -0.6294   14.4060 C   0  0  0  0  0  0
    1.3705    0.4673   13.7127 C   0  0  0  0  0  0
   -0.6505   -0.9617   14.2286 C   0  0  0  0  0  0
   -1.4307   -0.1294   13.7636 O   0  0  0  0  0  0
   -0.9986   -2.2074   14.6067 N   0  0  0  0  0  0
   -2.2013   -2.9250   14.3686 C   0  0  0  0  0  0
   -3.2069   -2.5158   13.4630 C   0  0  0  0  0  0
   -4.2979   -3.3610   13.1863 C   0  0  0  0  0  0
   -4.4180   -4.6330   13.7950 C   0  0  0  0  0  0
   -3.4333   -5.0054   14.7398 C   0  0  0  0  0  0
   -2.3390   -4.1648   15.0219 C   0  0  0  0  0  0
   -5.5132   -5.5578   13.4165 C   0  0  0  0  0  0
   -6.2317   -5.3953   12.2949 N   0  5  0  0  0  0
   -7.0420   -6.4627   12.3014 N   0  0  0  0  0  0
   -6.7702   -7.2343   13.3669 N   0  0  0  0  0  0
   -5.7755   -6.6903   14.0851 N   0  0  0  0  0  0
   -0.0086    4.2943   11.4590 C   0  0  0  0  0  0
   -1.4222    4.3302   11.4026 C   0  0  0  0  0  0
   -2.2109    4.6204   12.4968 O   0  0  0  0  0  0
   -1.6164    5.3614   13.5547 C   0  0  0  0  0  0
   -5.2097    3.9026    9.1227 H   0  0  0  0  0  0
   -3.8753    4.6144    8.2207 H   0  0  0  0  0  0
   -3.9148    2.8615    8.5434 H   0  0  0  0  0  0
   -1.7560    3.6028    8.0628 H   0  0  0  0  0  0
    0.6801    3.6070    8.1868 H   0  0  0  0  0  0
    2.6159    4.6761    9.7590 H   0  0  0  0  0  0
    5.1638    2.2031   14.2407 H   0  0  0  0  0  0
    6.8725    4.1443   13.5319 H   0  0  0  0  0  0
    6.7583    6.0557   11.5376 H   0  0  0  0  0  0
    4.6224    0.1530   14.7098 H   0  0  0  0  0  0
    3.6463   -1.7046   15.9824 H   0  0  0  0  0  0
    1.2582   -2.2176   15.8374 H   0  0  0  0  0  0
    0.7244    1.0705   13.0901 H   0  0  0  0  0  0
   -0.2700   -2.7364   15.0615 H   0  0  0  0  0  0
   -3.1415   -1.5874   12.9183 H   0  0  0  0  0  0
   -5.0302   -3.0414   12.4568 H   0  0  0  0  0  0
   -3.4920   -5.9621   15.2374 H   0  0  0  0  0  0
   -1.5905   -4.4978   15.7269 H   0  0  0  0  0  0
    0.5116    4.4818   12.3858 H   0  0  0  0  0  0
   -2.3836    5.6061   14.2887 H   0  0  0  0  0  0
   -0.8406    4.8038   14.0782 H   0  0  0  0  0  0
   -1.1895    6.2981   13.1957 H   0  0  0  0  0  0
  1  2  1  0  0  0
  1 41  1  0  0  0
  1 42  1  0  0  0
  1 43  1  0  0  0
  2  3  1  0  0  0
  3  4  2  0  0  0
  3 38  1  0  0  0
  4  5  1  0  0  0
  4 44  1  0  0  0
  5  6  2  0  0  0
  5 45  1  0  0  0
  6  7  1  0  0  0
  6 37  1  0  0  0
  7  8  1  0  0  0
  7 46  1  0  0  0
  8  9  2  0  0  0
  8 16  1  0  0  0
  9 10  1  0  0  0
 10 11  2  0  0  0
 10 17  1  0  0  0
 11 12  1  0  0  0
 11 47  1  0  0  0
 12 13  1  0  0  0
 12 16  1  0  0  0
 13 14  2  0  0  0
 13 48  1  0  0  0
 14 15  1  0  0  0
 14 49  1  0  0  0
 15 16  2  0  0  0
 17 18  2  0  0  0
 17 22  1  0  0  0
 18 19  1  0  0  0
 18 50  1  0  0  0
 19 20  2  0  0  0
 19 51  1  0  0  0
 20 21  1  0  0  0
 20 52  1  0  0  0
 21 22  2  0  0  0
 21 23  1  0  0  0
 22 53  1  0  0  0
 23 24  2  0  0  0
 23 25  1  0  0  0
 25 26  1  0  0  0
 25 54  1  0  0  0
 26 27  2  0  0  0
 26 31  1  0  0  0
 27 28  1  0  0  0
 27 55  1  0  0  0
 28 29  2  0  0  0
 28 56  1  0  0  0
 29 30  1  0  0  0
 29 32  1  0  0  0
 30 31  2  0  0  0
 30 57  1  0  0  0
 31 58  1  0  0  0
 32 36  2  0  0  0
 32 33  1  0  0  0
 33 34  1  0  0  0
 34 35  2  0  0  0
 35 36  1  0  0  0
 37 38  2  0  0  0
 37 59  1  0  0  0
 38 39  1  0  0  0
 39 40  1  0  0  0
 40 60  1  0  0  0
 40 61  1  0  0  0
 40 62  1  0  0  0
M  CHG  1  33  -1
M  END
> <s_m_entry_id>
707

> <IC50[nM]>
1.5

> <s_m_Source_Path>
/projects/mai/users/kmzp800_harry/pmx_colab/docking_jobs/syk

> <s_m_Source_File>
tnks2_lig.sdf

> <i_m_Source_File_Index>
28

> <s_m_job_name>
glide-dock_SP_tnks2_no_const

> <r_i_docking_score>
-7.08005262099608

> <r_i_glide_gscore>
-7.08005262099608

> <r_i_glide_emodel>
-81.4104563486412

$$$$
CHEMBL3264999
                    3D
 Schrodinger Suite 2021-4.
 62 66  0  0  1  0            999 V2000
   -1.1848    6.5070   11.0542 C   0  0  0  0  0  0
   -0.7998    5.3238   10.3659 O   0  0  0  0  0  0
   -0.9316    4.1552   11.0775 C   0  0  0  0  0  0
   -1.8011    3.1771   10.5678 C   0  0  0  0  0  0
   -1.9619    1.9458   11.2267 C   0  0  0  0  0  0
   -1.2359    1.6614   12.3970 C   0  0  0  0  0  0
   -1.4325    0.4077   13.0052 N   0  0  0  0  0  0
   -0.5387   -0.3663   13.7632 C   0  0  0  0  0  0
    0.7171   -0.0380   13.7820 N   0  0  0  0  0  0
    1.6226   -0.7429   14.5430 C   0  0  0  0  0  0
    1.2308   -1.8187   15.3034 C   0  0  0  0  0  0
   -0.0765   -2.1918   15.2570 N   0  0  0  0  0  0
   -0.7627   -3.2173   15.8792 C   0  0  0  0  0  0
   -2.0659   -3.1185   15.4794 C   0  0  0  0  0  0
   -2.2379   -2.0432   14.6139 N   0  0  0  0  0  0
   -1.0297   -1.4907   14.4817 C   0  0  0  0  0  0
    3.0114   -0.2037   14.5237 C   0  0  0  0  0  0
    4.0207   -0.6420   15.4174 C   0  0  0  0  0  0
    5.2791    0.0036   15.4692 C   0  0  0  0  0  0
    5.5719    1.0801   14.6172 C   0  0  0  0  0  0
    4.5890    1.5375   13.7190 C   0  0  0  0  0  0
    3.3415    0.8789   13.6690 C   0  0  0  0  0  0
    4.8073    2.7992   12.9373 C   0  0  0  0  0  0
    5.6066    3.6409   13.3444 O   0  0  0  0  0  0
    4.1141    2.8708   11.7836 N   0  0  0  0  0  0
    3.7824    4.0221   11.0244 C   0  0  0  0  0  0
    2.6870    3.9324   10.1376 C   0  0  0  0  0  0
    2.2494    5.0643    9.4180 C   0  0  0  0  0  0
    2.8992    6.3067    9.5835 C   0  0  0  0  0  0
    4.0300    6.3680   10.4180 C   0  0  0  0  0  0
    4.4724    5.2495   11.1387 C   0  0  0  0  0  0
    2.4189    7.5313    8.8566 C   0  0  0  0  0  0
    1.7663    7.4426    7.8181 O   0  0  0  0  0  0
    2.6893    8.7155    9.4170 N   0  0  0  0  0  0
   -0.3717    2.6515   12.9212 C   0  0  0  0  0  0
   -0.1966    3.8964   12.2614 C   0  0  0  0  0  0
    0.6913    4.8619   12.6884 O   0  0  0  0  0  0
    1.2603    4.7429   13.9813 C   0  0  0  0  0  0
   -1.1569    7.3450   10.3570 H   0  0  0  0  0  0
   -2.2072    6.4240   11.4361 H   0  0  0  0  0  0
   -0.5233    6.7569   11.8873 H   0  0  0  0  0  0
   -2.3467    3.3759    9.6575 H   0  0  0  0  0  0
   -2.6290    1.2046   10.8085 H   0  0  0  0  0  0
   -2.2818   -0.0817   12.7693 H   0  0  0  0  0  0
    1.8793   -2.3959   15.9508 H   0  0  0  0  0  0
   -0.2533   -3.8969   16.5494 H   0  0  0  0  0  0
   -2.9062   -3.7384   15.7610 H   0  0  0  0  0  0
    3.8356   -1.4486   16.1076 H   0  0  0  0  0  0
    6.0260   -0.3307   16.1751 H   0  0  0  0  0  0
    6.5307    1.5765   14.6878 H   0  0  0  0  0  0
    2.5868    1.2747   13.0077 H   0  0  0  0  0  0
    3.5773    2.0465   11.5616 H   0  0  0  0  0  0
    2.1505    3.0017   10.0280 H   0  0  0  0  0  0
    1.3873    4.9823    8.7711 H   0  0  0  0  0  0
    4.5687    7.2862   10.5336 H   0  0  0  0  0  0
    5.3298    5.3755   11.7783 H   0  0  0  0  0  0
    2.3720    9.5550    8.9592 H   0  0  0  0  0  0
    3.1747    8.8007   10.3176 H   0  0  0  0  0  0
    0.1682    2.4444   13.8314 H   0  0  0  0  0  0
    1.8527    5.6326   14.2027 H   0  0  0  0  0  0
    0.4797    4.6717   14.7399 H   0  0  0  0  0  0
    1.9237    3.8790   14.0522 H   0  0  0  0  0  0
  1  2  1  0  0  0
  1 39  1  0  0  0
  1 40  1  0  0  0
  1 41  1  0  0  0
  2  3  1  0  0  0
  3  4  2  0  0  0
  3 36  1  0  0  0
  4  5  1  0  0  0
  4 42  1  0  0  0
  5  6  2  0  0  0
  5 43  1  0  0  0
  6  7  1  0  0  0
  6 35  1  0  0  0
  7  8  1  0  0  0
  7 44  1  0  0  0
  8  9  2  0  0  0
  8 16  1  0  0  0
  9 10  1  0  0  0
 10 11  2  0  0  0
 10 17  1  0  0  0
 11 12  1  0  0  0
 11 45  1  0  0  0
 12 13  1  0  0  0
 12 16  1  0  0  0
 13 14  2  0  0  0
 13 46  1  0  0  0
 14 15  1  0  0  0
 14 47  1  0  0  0
 15 16  2  0  0  0
 17 18  2  0  0  0
 17 22  1  0  0  0
 18 19  1  0  0  0
 18 48  1  0  0  0
 19 20  2  0  0  0
 19 49  1  0  0  0
 20 21  1  0  0  0
 20 50  1  0  0  0
 21 22  2  0  0  0
 21 23  1  0  0  0
 22 51  1  0  0  0
 23 24  2  0  0  0
 23 25  1  0  0  0
 25 26  1  0  0  0
 25 52  1  0  0  0
 26 27  2  0  0  0
 26 31  1  0  0  0
 27 28  1  0  0  0
 27 53  1  0  0  0
 28 29  2  0  0  0
 28 54  1  0  0  0
 29 30  1  0  0  0
 29 32  1  0  0  0
 30 31  2  0  0  0
 30 55  1  0  0  0
 31 56  1  0  0  0
 32 33  2  0  0  0
 32 34  1  0  0  0
 34 57  1  0  0  0
 34 58  1  0  0  0
 35 36  2  0  0  0
 35 59  1  0  0  0
 36 37  1  0  0  0
 37 38  1  0  0  0
 38 60  1  0  0  0
 38 61  1  0  0  0
 38 62  1  0  0  0
M  END
> <s_m_entry_id>
708

> <IC50[nM]>
4.3

> <s_m_Source_Path>
/projects/mai/users/kmzp800_harry/pmx_colab/docking_jobs/syk

> <s_m_Source_File>
tnks2_lig.sdf

> <i_m_Source_File_Index>
29

> <s_m_job_name>
glide-dock_SP_tnks2_no_const

> <r_i_docking_score>
-7.66193409857657

> <r_i_glide_gscore>
-7.66193409857657

> <r_i_glide_emodel>
-79.6318903017516

$$$$
CHEMBL3265036
                    3D
 Schrodinger Suite 2021-4.
 55 60  0  0  1  0            999 V2000
   -5.3370    8.8916   11.3544 C   0  0  0  0  0  0
   -5.6489    8.9630   12.8583 C   0  0  0  0  0  0
   -6.1853    7.7419   13.3621 O   0  0  0  0  0  0
   -5.2641    6.6626   13.4841 C   0  0  0  0  0  0
   -4.7251    6.1839   12.1293 C   0  0  0  0  0  0
   -3.6450    7.0438   11.6502 N   0  0  0  0  0  0
   -3.9426    8.3309   11.0218 C   0  0  0  0  0  0
   -2.2964    6.6623   11.8390 C   0  0  0  0  0  0
   -1.2638    7.2039   11.0334 C   0  0  0  0  0  0
    0.0777    6.8058   11.2064 C   0  0  0  0  0  0
    0.4220    5.8484   12.1798 C   0  0  0  0  0  0
    1.7697    5.4718   12.2899 N   0  0  0  0  0  0
    2.3350    4.2596   12.7165 C   0  0  0  0  0  0
    1.5688    3.2339   12.9645 N   0  0  0  0  0  0
    2.1170    2.0444   13.3881 C   0  0  0  0  0  0
    3.4718    1.8890   13.5683 C   0  0  0  0  0  0
    4.2673    2.9634   13.3211 N   0  0  0  0  0  0
    5.6298    3.1428   13.4526 C   0  0  0  0  0  0
    5.9050    4.4035   13.0011 C   0  0  0  0  0  0
    4.7401    5.0469   12.6096 N   0  0  0  0  0  0
    3.7496    4.1869   12.8471 C   0  0  0  0  0  0
    1.1407    0.9688   13.6802 C   0  0  0  0  0  0
    1.4275   -0.0607   14.6126 C   0  0  0  0  0  0
    0.4663   -1.0283   14.9709 C   0  0  0  0  0  0
   -0.8212   -1.0126   14.3910 C   0  0  0  0  0  0
   -2.0443   -1.7545   14.5023 C   0  0  0  0  0  0
   -2.9648   -1.2987   13.6830 N   0  0  0  0  0  0
   -2.3749   -0.2724   13.0176 N   0  0  0  0  0  0
   -1.0793   -0.0143   13.4167 C   0  0  0  0  0  0
   -0.1276    0.9538   13.0568 C   0  0  0  0  0  0
   -0.5941    5.3360   13.0174 C   0  0  0  0  0  0
   -1.9318    5.7359   12.8460 C   0  0  0  0  0  0
   -5.3890    9.9003   10.9436 H   0  0  0  0  0  0
   -6.1156    8.3273   10.8409 H   0  0  0  0  0  0
   -4.7694    9.2702   13.4244 H   0  0  0  0  0  0
   -6.4050    9.7339   13.0302 H   0  0  0  0  0  0
   -5.8029    5.8363   13.9505 H   0  0  0  0  0  0
   -4.4541    6.9174   14.1726 H   0  0  0  0  0  0
   -5.5304    6.1483   11.3965 H   0  0  0  0  0  0
   -4.3786    5.1544   12.2036 H   0  0  0  0  0  0
   -3.1971    9.0597   11.3422 H   0  0  0  0  0  0
   -3.8395    8.2246    9.9422 H   0  0  0  0  0  0
   -1.4815    7.9211   10.2569 H   0  0  0  0  0  0
    0.8435    7.2324   10.5718 H   0  0  0  0  0  0
    2.4454    6.1682   12.0089 H   0  0  0  0  0  0
    3.9542    0.9808   13.9091 H   0  0  0  0  0  0
    6.2659    2.3538   13.8256 H   0  0  0  0  0  0
    6.8607    4.9028   12.9200 H   0  0  0  0  0  0
    2.3939   -0.1025   15.0905 H   0  0  0  0  0  0
    0.7090   -1.7828   15.7082 H   0  0  0  0  0  0
   -2.2655   -2.5945   15.1410 H   0  0  0  0  0  0
   -2.8477    0.1846   12.2507 H   0  0  0  0  0  0
   -0.3831    1.7038   12.3233 H   0  0  0  0  0  0
   -0.3595    4.6436   13.8117 H   0  0  0  0  0  0
   -2.6669    5.3192   13.5198 H   0  0  0  0  0  0
  1  2  1  0  0  0
  1  7  1  0  0  0
  1 33  1  0  0  0
  1 34  1  0  0  0
  2  3  1  0  0  0
  2 35  1  0  0  0
  2 36  1  0  0  0
  3  4  1  0  0  0
  4  5  1  0  0  0
  4 37  1  0  0  0
  4 38  1  0  0  0
  5  6  1  0  0  0
  5 39  1  0  0  0
  5 40  1  0  0  0
  6  7  1  0  0  0
  6  8  1  0  0  0
  7 41  1  0  0  0
  7 42  1  0  0  0
  8  9  2  0  0  0
  8 32  1  0  0  0
  9 10  1  0  0  0
  9 43  1  0  0  0
 10 11  2  0  0  0
 10 44  1  0  0  0
 11 12  1  0  0  0
 11 31  1  0  0  0
 12 13  1  0  0  0
 12 45  1  0  0  0
 13 14  2  0  0  0
 13 21  1  0  0  0
 14 15  1  0  0  0
 15 16  2  0  0  0
 15 22  1  0  0  0
 16 17  1  0  0  0
 16 46  1  0  0  0
 17 18  1  0  0  0
 17 21  1  0  0  0
 18 19  2  0  0  0
 18 47  1  0  0  0
 19 20  1  0  0  0
 19 48  1  0  0  0
 20 21  2  0  0  0
 22 23  2  0  0  0
 22 30  1  0  0  0
 23 24  1  0  0  0
 23 49  1  0  0  0
 24 25  2  0  0  0
 24 50  1  0  0  0
 25 26  1  0  0  0
 25 29  1  0  0  0
 26 27  2  0  0  0
 26 51  1  0  0  0
 27 28  1  0  0  0
 28 29  1  0  0  0
 28 52  1  0  0  0
 29 30  2  0  0  0
 30 53  1  0  0  0
 31 32  2  0  0  0
 31 54  1  0  0  0
 32 55  1  0  0  0
M  END
> <s_m_entry_id>
709

> <IC50[nM]>
23.1

> <s_m_Source_Path>
/projects/mai/users/kmzp800_harry/pmx_colab/docking_jobs/syk

> <s_m_Source_File>
tnks2_lig.sdf

> <i_m_Source_File_Index>
30

> <s_m_job_name>
glide-dock_SP_tnks2_no_const

> <r_i_docking_score>
-6.07720887794364

> <r_i_glide_gscore>
-6.07720887794364

> <r_i_glide_emodel>
-66.9091655102499

$$$$
CHEMBL3265017
                    3D
 Schrodinger Suite 2021-4.
 47 51  0  0  1  0            999 V2000
   -4.9530   -4.7464   13.6541 C   0  0  0  0  0  0
   -3.7881   -5.3340   14.2133 O   0  0  0  0  0  0
   -2.7641   -4.5008   14.6175 C   0  0  0  0  0  0
   -2.7705   -3.0979   14.4226 C   0  0  0  0  0  0
   -1.6758   -2.3133   14.8268 C   0  0  0  0  0  0
   -0.5512   -2.9134   15.4308 C   0  0  0  0  0  0
    0.5858   -2.1828   15.8169 N   0  0  0  0  0  0
    1.2933   -1.2137   15.0908 C   0  0  0  0  0  0
    0.6562   -0.4987   14.2097 N   0  0  0  0  0  0
    1.3227    0.4630   13.4919 C   0  0  0  0  0  0
    2.6773    0.6727   13.6217 C   0  0  0  0  0  0
    3.3387   -0.0470   14.5699 N   0  0  0  0  0  0
    4.6488    0.0063   15.0154 C   0  0  0  0  0  0
    4.7412   -0.8709   16.0569 C   0  0  0  0  0  0
    3.5427   -1.5592   16.2209 N   0  0  0  0  0  0
    2.6832   -1.0209   15.3554 C   0  0  0  0  0  0
    0.4629    1.3001   12.6212 C   0  0  0  0  0  0
   -0.7670    0.8122   12.1058 C   0  0  0  0  0  0
   -1.5838    1.6043   11.2706 C   0  0  0  0  0  0
   -1.2011    2.9155   10.9225 C   0  0  0  0  0  0
   -1.7164    3.9872   10.1205 C   0  0  0  0  0  0
   -0.9363    5.0403   10.1591 N   0  0  0  0  0  0
    0.1003    4.6951   10.9649 N   0  0  0  0  0  0
    0.0168    3.4056   11.4610 C   0  0  0  0  0  0
    0.8377    2.6246   12.2929 C   0  0  0  0  0  0
   -0.5683   -4.3025   15.6701 C   0  0  0  0  0  0
   -1.6585   -5.1066   15.2543 C   0  0  0  0  0  0
   -1.7074   -6.4794   15.4142 O   0  0  0  0  0  0
   -0.7132   -7.1130   16.2074 C   0  0  0  0  0  0
   -5.6710   -5.5296   13.4160 H   0  0  0  0  0  0
   -4.7249   -4.2131   12.7307 H   0  0  0  0  0  0
   -5.4312   -4.0659   14.3589 H   0  0  0  0  0  0
   -3.6031   -2.5951   13.9534 H   0  0  0  0  0  0
   -1.7107   -1.2474   14.6651 H   0  0  0  0  0  0
    1.1859   -2.6625   16.4792 H   0  0  0  0  0  0
    3.2422    1.4191   13.0758 H   0  0  0  0  0  0
    5.3583    0.6865   14.5717 H   0  0  0  0  0  0
    5.6015   -1.1010   16.6720 H   0  0  0  0  0  0
   -1.0858   -0.1958   12.3335 H   0  0  0  0  0  0
   -2.5058    1.2006   10.8817 H   0  0  0  0  0  0
   -2.6210    4.0174    9.5316 H   0  0  0  0  0  0
    0.8370    5.3601   11.1590 H   0  0  0  0  0  0
    1.7483    3.0556   12.6795 H   0  0  0  0  0  0
    0.2884   -4.7442   16.1554 H   0  0  0  0  0  0
   -0.8903   -8.1877   16.1981 H   0  0  0  0  0  0
    0.2932   -6.9463   15.8203 H   0  0  0  0  0  0
   -0.7635   -6.7927   17.2489 H   0  0  0  0  0  0
  1  2  1  0  0  0
  1 30  1  0  0  0
  1 31  1  0  0  0
  1 32  1  0  0  0
  2  3  1  0  0  0
  3  4  2  0  0  0
  3 27  1  0  0  0
  4  5  1  0  0  0
  4 33  1  0  0  0
  5  6  2  0  0  0
  5 34  1  0  0  0
  6  7  1  0  0  0
  6 26  1  0  0  0
  7  8  1  0  0  0
  7 35  1  0  0  0
  8  9  2  0  0  0
  8 16  1  0  0  0
  9 10  1  0  0  0
 10 11  2  0  0  0
 10 17  1  0  0  0
 11 12  1  0  0  0
 11 36  1  0  0  0
 12 13  1  0  0  0
 12 16  1  0  0  0
 13 14  2  0  0  0
 13 37  1  0  0  0
 14 15  1  0  0  0
 14 38  1  0  0  0
 15 16  2  0  0  0
 17 18  2  0  0  0
 17 25  1  0  0  0
 18 19  1  0  0  0
 18 39  1  0  0  0
 19 20  2  0  0  0
 19 40  1  0  0  0
 20 21  1  0  0  0
 20 24  1  0  0  0
 21 22  2  0  0  0
 21 41  1  0  0  0
 22 23  1  0  0  0
 23 24  1  0  0  0
 23 42  1  0  0  0
 24 25  2  0  0  0
 25 43  1  0  0  0
 26 27  2  0  0  0
 26 44  1  0  0  0
 27 28  1  0  0  0
 28 29  1  0  0  0
 29 45  1  0  0  0
 29 46  1  0  0  0
 29 47  1  0  0  0
M  END
> <s_m_entry_id>
710

> <IC50[nM]>
3.8

> <s_m_Source_Path>
/projects/mai/users/kmzp800_harry/pmx_colab/docking_jobs/syk

> <s_m_Source_File>
tnks2_lig.sdf

> <i_m_Source_File_Index>
31

> <s_m_job_name>
glide-dock_SP_tnks2_no_const

> <r_i_docking_score>
-7.10478076971642

> <r_i_glide_gscore>
-7.10478076971642

> <r_i_glide_emodel>
-61.0038275268049

$$$$
CHEMBL3265009
                    3D
 Schrodinger Suite 2021-4.
 51 54  0  0  1  0            999 V2000
    1.4681    6.4039   12.5214 C   0  0  0  0  0  0
    0.7873    5.7141   11.4845 O   0  0  0  0  0  0
    0.2093    4.4972   11.7867 C   0  0  0  0  0  0
    0.2810    3.8928   13.0642 C   0  0  0  0  0  0
   -0.3106    2.6402   13.2926 C   0  0  0  0  0  0
   -0.9949    1.9666   12.2604 C   0  0  0  0  0  0
   -1.5974    0.7186   12.4769 N   0  0  0  0  0  0
   -1.2181   -0.2538   13.4152 C   0  0  0  0  0  0
   -2.1987   -0.9347   13.9370 N   0  0  0  0  0  0
   -1.9135   -1.9069   14.8734 C   0  0  0  0  0  0
   -0.6335   -2.2105   15.2694 C   0  0  0  0  0  0
    0.3849   -1.5183   14.7026 N   0  0  0  0  0  0
    1.7503   -1.5855   14.8932 C   0  0  0  0  0  0
    2.3028   -0.6609   14.0548 C   0  0  0  0  0  0
    1.3194   -0.0071   13.3256 N   0  0  0  0  0  0
    0.1549   -0.5089   13.7407 C   0  0  0  0  0  0
   -3.0653   -2.5790   15.5069 C   0  0  0  0  0  0
   -3.0056   -3.9532   15.8222 C   0  0  0  0  0  0
   -4.0390   -4.5729   16.5452 C   0  0  0  0  0  0
   -5.1551   -3.8312   16.9825 C   0  0  0  0  0  0
   -6.2328   -4.5355   17.7936 C   0  0  0  0  0  0
   -5.2369   -2.4520   16.6609 C   0  0  0  0  0  0
   -4.2083   -1.8506   15.9066 C   0  0  0  0  0  0
   -6.3766   -1.6022   17.1339 C   0  0  0  0  0  0
   -7.2382   -1.1976   16.3573 O   0  0  0  0  0  0
   -6.3713   -1.3039   18.4330 N   0  0  0  0  0  0
   -1.0967    2.5809   10.9972 C   0  0  0  0  0  0
   -0.4766    3.8346   10.7449 C   0  0  0  0  0  0
   -0.4939    4.4674    9.5199 O   0  0  0  0  0  0
   -0.9686    3.7526    8.3936 C   0  0  0  0  0  0
    1.8570    7.3465   12.1350 H   0  0  0  0  0  0
    0.7919    6.6349   13.3446 H   0  0  0  0  0  0
    2.3171    5.8298   12.8992 H   0  0  0  0  0  0
    0.7936    4.3639   13.8887 H   0  0  0  0  0  0
   -0.2335    2.2031   14.2761 H   0  0  0  0  0  0
   -2.3721    0.4659   11.8797 H   0  0  0  0  0  0
   -0.3804   -2.9486   16.0233 H   0  0  0  0  0  0
    2.1701   -2.2829   15.6038 H   0  0  0  0  0  0
    3.3429   -0.4078   13.9126 H   0  0  0  0  0  0
   -2.1428   -4.5359   15.5379 H   0  0  0  0  0  0
   -3.9561   -5.6216   16.7889 H   0  0  0  0  0  0
   -6.0806   -5.6166   17.8030 H   0  0  0  0  0  0
   -6.2201   -4.1879   18.8266 H   0  0  0  0  0  0
   -7.2241   -4.3475   17.3751 H   0  0  0  0  0  0
   -4.2614   -0.7939   15.6923 H   0  0  0  0  0  0
   -7.1276   -0.7633   18.8230 H   0  0  0  0  0  0
   -5.5880   -1.5938   19.0070 H   0  0  0  0  0  0
   -1.6274    2.0632   10.2171 H   0  0  0  0  0  0
   -0.7680    4.3385    7.4994 H   0  0  0  0  0  0
   -0.4502    2.8042    8.2727 H   0  0  0  0  0  0
   -2.0442    3.5756    8.4511 H   0  0  0  0  0  0
  1  2  1  0  0  0
  1 31  1  0  0  0
  1 32  1  0  0  0
  1 33  1  0  0  0
  2  3  1  0  0  0
  3  4  2  0  0  0
  3 28  1  0  0  0
  4  5  1  0  0  0
  4 34  1  0  0  0
  5  6  2  0  0  0
  5 35  1  0  0  0
  6  7  1  0  0  0
  6 27  1  0  0  0
  7  8  1  0  0  0
  7 36  1  0  0  0
  8  9  2  0  0  0
  8 16  1  0  0  0
  9 10  1  0  0  0
 10 11  2  0  0  0
 10 17  1  0  0  0
 11 12  1  0  0  0
 11 37  1  0  0  0
 12 13  1  0  0  0
 12 16  1  0  0  0
 13 14  2  0  0  0
 13 38  1  0  0  0
 14 15  1  0  0  0
 14 39  1  0  0  0
 15 16  2  0  0  0
 17 18  2  0  0  0
 17 23  1  0  0  0
 18 19  1  0  0  0
 18 40  1  0  0  0
 19 20  2  0  0  0
 19 41  1  0  0  0
 20 21  1  0  0  0
 20 22  1  0  0  0
 21 42  1  0  0  0
 21 43  1  0  0  0
 21 44  1  0  0  0
 22 23  2  0  0  0
 22 24  1  0  0  0
 23 45  1  0  0  0
 24 25  2  0  0  0
 24 26  1  0  0  0
 26 46  1  0  0  0
 26 47  1  0  0  0
 27 28  2  0  0  0
 27 48  1  0  0  0
 28 29  1  0  0  0
 29 30  1  0  0  0
 30 49  1  0  0  0
 30 50  1  0  0  0
 30 51  1  0  0  0
M  END
> <s_m_entry_id>
711

> <IC50[nM]>
28.3

> <s_m_Source_Path>
/projects/mai/users/kmzp800_harry/pmx_colab/docking_jobs/syk

> <s_m_Source_File>
tnks2_lig.sdf

> <i_m_Source_File_Index>
32

> <s_m_job_name>
glide-dock_SP_tnks2_no_const

> <r_i_docking_score>
-6.73569758901055

> <r_i_glide_gscore>
-6.73569758901055

> <r_i_glide_emodel>
-70.4905817315884

$$$$
CHEMBL3265029
                    3D
 Schrodinger Suite 2021-4.
 43 47  0  0  1  0            999 V2000
   -3.9619   -1.7329   14.8433 C   0  0  0  0  0  0
   -3.3921   -0.7963   13.9378 O   0  0  0  0  0  0
   -2.0169   -0.7190   13.8732 C   0  0  0  0  0  0
   -1.1401   -1.5169   14.6477 C   0  0  0  0  0  0
    0.2542   -1.3503   14.5464 C   0  0  0  0  0  0
    0.8057   -0.3918   13.6707 C   0  0  0  0  0  0
    2.2050   -0.2913   13.6246 N   0  0  0  0  0  0
    3.0166    0.8409   13.4549 C   0  0  0  0  0  0
    2.6436    1.8210   12.6814 N   0  0  0  0  0  0
    3.4580    2.9232   12.5249 C   0  0  0  0  0  0
    4.6505    3.0538   13.1992 C   0  0  0  0  0  0
    5.0339    2.0254   14.0088 N   0  0  0  0  0  0
    6.1438    1.8395   14.8114 C   0  0  0  0  0  0
    6.0292    0.6014   15.3861 C   0  0  0  0  0  0
    4.8306    0.0046   15.0147 N   0  0  0  0  0  0
    4.2492    0.8603   14.1669 C   0  0  0  0  0  0
    2.9849    3.9195   11.5297 C   0  0  0  0  0  0
    2.4613    3.4610   10.2985 C   0  0  0  0  0  0
    1.9655    4.3362    9.3163 C   0  0  0  0  0  0
    1.9910    5.7288    9.5225 C   0  0  0  0  0  0
    1.5893    6.8933    8.7949 C   0  0  0  0  0  0
    1.8659    7.9912    9.4513 N   0  0  0  0  0  0
    2.4300    7.5832   10.6175 N   0  0  0  0  0  0
    2.5430    6.2029   10.7439 C   0  0  0  0  0  0
    3.0435    5.3214   11.7334 C   0  0  0  0  0  0
   -0.0676    0.3884   12.8810 C   0  0  0  0  0  0
   -1.4626    0.2264   12.9876 C   0  0  0  0  0  0
   -5.0491   -1.6725   14.7935 H   0  0  0  0  0  0
   -3.6692   -1.5216   15.8726 H   0  0  0  0  0  0
   -3.6762   -2.7553   14.5899 H   0  0  0  0  0  0
   -1.5073   -2.2607   15.3374 H   0  0  0  0  0  0
    0.9013   -1.9694   15.1532 H   0  0  0  0  0  0
    2.6727   -0.9707   14.2103 H   0  0  0  0  0  0
    5.3139    3.9075   13.1075 H   0  0  0  0  0  0
    6.9114    2.5967   14.8632 H   0  0  0  0  0  0
    6.7037    0.0875   16.0563 H   0  0  0  0  0  0
    2.4359    2.4034   10.1030 H   0  0  0  0  0  0
    1.5620    3.9392    8.3967 H   0  0  0  0  0  0
    1.1275    6.9560    7.8210 H   0  0  0  0  0  0
    2.8230    8.2800   11.2611 H   0  0  0  0  0  0
    3.4400    5.7201   12.6553 H   0  0  0  0  0  0
    0.3108    1.1129   12.1783 H   0  0  0  0  0  0
   -2.1122    0.8354   12.3768 H   0  0  0  0  0  0
  1  2  1  0  0  0
  1 28  1  0  0  0
  1 29  1  0  0  0
  1 30  1  0  0  0
  2  3  1  0  0  0
  3  4  2  0  0  0
  3 27  1  0  0  0
  4  5  1  0  0  0
  4 31  1  0  0  0
  5  6  2  0  0  0
  5 32  1  0  0  0
  6  7  1  0  0  0
  6 26  1  0  0  0
  7  8  1  0  0  0
  7 33  1  0  0  0
  8  9  2  0  0  0
  8 16  1  0  0  0
  9 10  1  0  0  0
 10 11  2  0  0  0
 10 17  1  0  0  0
 11 12  1  0  0  0
 11 34  1  0  0  0
 12 13  1  0  0  0
 12 16  1  0  0  0
 13 14  2  0  0  0
 13 35  1  0  0  0
 14 15  1  0  0  0
 14 36  1  0  0  0
 15 16  2  0  0  0
 17 18  2  0  0  0
 17 25  1  0  0  0
 18 19  1  0  0  0
 18 37  1  0  0  0
 19 20  2  0  0  0
 19 38  1  0  0  0
 20 21  1  0  0  0
 20 24  1  0  0  0
 21 22  2  0  0  0
 21 39  1  0  0  0
 22 23  1  0  0  0
 23 24  1  0  0  0
 23 40  1  0  0  0
 24 25  2  0  0  0
 25 41  1  0  0  0
 26 27  2  0  0  0
 26 42  1  0  0  0
 27 43  1  0  0  0
M  END
> <s_m_entry_id>
712

> <IC50[nM]>
7

> <s_m_Source_Path>
/projects/mai/users/kmzp800_harry/pmx_colab/docking_jobs/syk

> <s_m_Source_File>
tnks2_lig.sdf

> <i_m_Source_File_Index>
33

> <s_m_job_name>
glide-dock_SP_tnks2_no_const

> <r_i_docking_score>
-6.6385053878209

> <r_i_glide_gscore>
-6.6385053878209

> <r_i_glide_emodel>
-58.7767896856805

$$$$
CHEMBL3265030_n
                    3D
 Schrodinger Suite 2021-4.
 52 57  0  0  1  0            999 V2000
   -0.9997   -5.7564   15.1571 C   0  0  0  0  0  0
   -1.5770   -4.3900   15.5174 C   0  0  0  0  0  0
   -2.7695   -4.6823   16.2173 O   0  0  0  0  0  0
   -0.6192   -3.4132   16.2160 C   0  0  0  0  0  0
   -1.0728   -2.3956   15.2822 N   0  0  0  0  0  0
   -1.7362   -3.3461   14.4027 C   0  0  0  0  0  0
   -0.1246   -1.5130   14.6966 C   0  0  0  0  0  0
   -0.4947   -0.7263   13.5840 C   0  0  0  0  0  0
    0.3752    0.2139   13.0007 C   0  0  0  0  0  0
    1.6701    0.4106   13.5239 C   0  0  0  0  0  0
    2.5760    1.3587   13.0196 N   0  0  0  0  0  0
    2.3396    2.6368   12.4829 C   0  0  0  0  0  0
    1.1224    3.0092   12.2013 N   0  0  0  0  0  0
    0.9043    4.2582   11.6738 C   0  0  0  0  0  0
    1.9102    5.1597   11.4307 C   0  0  0  0  0  0
    3.1763    4.7772   11.7423 N   0  0  0  0  0  0
    4.3873    5.4348   11.6396 C   0  0  0  0  0  0
    5.3396    4.5762   12.1156 C   0  0  0  0  0  0
    4.7700    3.3650   12.4891 N   0  0  0  0  0  0
    3.4580    3.4970   12.2775 C   0  0  0  0  0  0
   -0.5004    4.5644   11.3684 C   0  0  0  0  0  0
   -1.4169    4.8176   12.4134 C   0  0  0  0  0  0
   -2.7741    5.0858   12.1424 C   0  0  0  0  0  0
   -3.2531    5.1028   10.8124 C   0  0  0  0  0  0
   -4.5067    5.3172   10.1550 C   0  0  0  0  0  0
   -4.3969    5.2073    8.8518 N   0  0  0  0  0  0
   -3.0892    4.9325    8.6175 N   0  0  0  0  0  0
   -2.3207    4.8496    9.7693 C   0  0  0  0  0  0
   -0.9622    4.5888   10.0322 C   0  0  0  0  0  0
    2.0793   -0.3964   14.6012 C   0  0  0  0  0  0
    1.1899   -1.3190   15.1892 C   0  0  0  0  0  0
   -0.0574   -5.6583   14.6177 H   0  0  0  0  0  0
   -1.6851   -6.3334   14.5351 H   0  0  0  0  0  0
   -0.7890   -6.3452   16.0515 H   0  0  0  0  0  0
   -2.5135   -4.7928   17.1287 H   0  0  0  0  0  0
   -0.8712   -3.1907   17.2527 H   0  0  0  0  0  0
    0.4282   -3.7061   16.1016 H   0  0  0  0  0  0
   -1.1698   -3.5885   13.5017 H   0  0  0  0  0  0
   -2.7703   -3.0788   14.1800 H   0  0  0  0  0  0
   -1.4862   -0.8284   13.1674 H   0  0  0  0  0  0
    0.0244    0.7766   12.1486 H   0  0  0  0  0  0
    3.5361    1.2369   13.3044 H   0  0  0  0  0  0
    1.7588    6.1568   11.0314 H   0  0  0  0  0  0
    4.4290    6.4538   11.2798 H   0  0  0  0  0  0
    6.4072    4.7320   12.2072 H   0  0  0  0  0  0
   -1.0699    4.8069   13.4377 H   0  0  0  0  0  0
   -3.4528    5.2769   12.9595 H   0  0  0  0  0  0
   -5.4700    5.5428   10.5895 H   0  0  0  0  0  0
   -2.7688    4.8043    7.6582 H   0  0  0  0  0  0
   -0.2777    4.3961    9.2202 H   0  0  0  0  0  0
    3.0712   -0.2877   15.0170 H   0  0  0  0  0  0
    1.5409   -1.8729   16.0486 H   0  0  0  0  0  0
  1  2  1  0  0  0
  1 32  1  0  0  0
  1 33  1  0  0  0
  1 34  1  0  0  0
  2  3  1  0  0  0
  2  4  1  0  0  0
  2  6  1  0  0  0
  3 35  1  0  0  0
  4  5  1  0  0  0
  4 36  1  0  0  0
  4 37  1  0  0  0
  5  6  1  0  0  0
  5  7  1  0  0  0
  6 38  1  0  0  0
  6 39  1  0  0  0
  7  8  2  0  0  0
  7 31  1  0  0  0
  8  9  1  0  0  0
  8 40  1  0  0  0
  9 10  2  0  0  0
  9 41  1  0  0  0
 10 11  1  0  0  0
 10 30  1  0  0  0
 11 12  1  0  0  0
 11 42  1  0  0  0
 12 13  2  0  0  0
 12 20  1  0  0  0
 13 14  1  0  0  0
 14 15  2  0  0  0
 14 21  1  0  0  0
 15 16  1  0  0  0
 15 43  1  0  0  0
 16 17  1  0  0  0
 16 20  1  0  0  0
 17 18  2  0  0  0
 17 44  1  0  0  0
 18 19  1  0  0  0
 18 45  1  0  0  0
 19 20  2  0  0  0
 21 22  2  0  0  0
 21 29  1  0  0  0
 22 23  1  0  0  0
 22 46  1  0  0  0
 23 24  2  0  0  0
 23 47  1  0  0  0
 24 25  1  0  0  0
 24 28  1  0  0  0
 25 26  2  0  0  0
 25 48  1  0  0  0
 26 27  1  0  0  0
 27 28  1  0  0  0
 27 49  1  0  0  0
 28 29  2  0  0  0
 29 50  1  0  0  0
 30 31  2  0  0  0
 30 51  1  0  0  0
 31 52  1  0  0  0
M  END
> <s_m_entry_id>
713

> <IC50[nM]>
3.9

> <s_m_Source_Path>
/projects/mai/users/kmzp800_harry/pmx_colab/docking_jobs/syk

> <s_m_Source_File>
tnks2_lig.sdf

> <i_m_Source_File_Index>
34

> <s_m_job_name>
glide-dock_SP_tnks2_no_const

> <r_i_docking_score>
-6.63550805100336

> <r_i_glide_gscore>
-6.63550805100336

> <r_i_glide_emodel>
-70.0190511367257

$$$$
CHEMBL3264994
                    3D
 Schrodinger Suite 2021-4.
 64 68  0  0  1  0            999 V2000
    0.3555    9.9517   10.3484 C   0  0  0  0  0  0
   -0.2145    8.7664    9.5307 C   0  0  0  0  0  0
   -1.7330    8.6894    9.7904 C   0  0  0  0  0  0
    0.0353    9.0791    8.0368 C   0  0  0  0  0  0
    0.4282    7.4189    9.9124 C   0  0  0  0  0  0
    1.2512    7.2803   11.0570 C   0  0  0  0  0  0
    1.8179    6.0385   11.3930 C   0  0  0  0  0  0
    1.6113    4.9064   10.5752 C   0  0  0  0  0  0
    2.1678    3.6519   10.8717 N   0  0  0  0  0  0
    3.2455    3.3678   11.7199 C   0  0  0  0  0  0
    3.1311    2.2610   12.3943 N   0  0  0  0  0  0
    4.1130    1.8909   13.2886 C   0  0  0  0  0  0
    5.2319    2.6610   13.4902 C   0  0  0  0  0  0
    5.3799    3.7783   12.7452 N   0  0  0  0  0  0
    6.4143    4.6858   12.6929 C   0  0  0  0  0  0
    6.0563    5.6039   11.7538 C   0  0  0  0  0  0
    4.8301    5.2969   11.1855 N   0  0  0  0  0  0
    4.4108    4.1930   11.8057 C   0  0  0  0  0  0
    3.8631    0.6705   14.0953 C   0  0  0  0  0  0
    4.8301    0.1937   15.0173 C   0  0  0  0  0  0
    4.5060   -0.7962   15.9581 C   0  0  0  0  0  0
    3.2266   -1.3745   15.9558 C   0  0  0  0  0  0
    2.2695   -0.9847   15.0045 C   0  0  0  0  0  0
    1.0179   -1.6546   15.0247 N   0  0  0  0  0  0
   -0.1761   -1.1974   14.6059 C   0  0  0  0  0  0
   -0.3706   -0.0447   14.2173 O   0  0  0  0  0  0
   -1.3045   -2.1966   14.5940 C   0  0  0  0  0  0
   -2.5385   -1.8393   14.0039 C   0  0  0  0  0  0
   -3.5497   -2.7999   13.8186 C   0  0  0  0  0  0
   -3.3459   -4.1372   14.2174 C   0  0  0  0  0  0
   -2.1569   -4.4740   14.8998 C   0  0  0  0  0  0
   -1.1458   -3.5133   15.0918 C   0  0  0  0  0  0
   -4.3300   -5.2003   13.8181 C   0  0  0  0  0  0
   -5.4595   -4.8609   13.4018 O   0  0  0  0  0  0
   -3.9590   -6.3963   13.8179 O   0  5  0  0  0  0
    2.6032    0.0180   14.0653 C   0  0  0  0  0  0
    0.7712    5.0282    9.4491 C   0  0  0  0  0  0
    0.1829    6.2669    9.1252 C   0  0  0  0  0  0
   -0.0807   10.9002   10.0337 H   0  0  0  0  0  0
    1.4370   10.0380   10.2234 H   0  0  0  0  0  0
    0.1520    9.8494   11.4147 H   0  0  0  0  0  0
   -2.2018    7.9082    9.1924 H   0  0  0  0  0  0
   -1.9400    8.4691   10.8386 H   0  0  0  0  0  0
   -2.2273    9.6310    9.5438 H   0  0  0  0  0  0
   -0.4324    8.3512    7.3740 H   0  0  0  0  0  0
   -0.3658   10.0553    7.7631 H   0  0  0  0  0  0
    1.1037    9.0910    7.8131 H   0  0  0  0  0  0
    1.4721    8.1118   11.7100 H   0  0  0  0  0  0
    2.4165    5.9818   12.2898 H   0  0  0  0  0  0
    1.5781    2.8595   10.6678 H   0  0  0  0  0  0
    6.0320    2.4530   14.1880 H   0  0  0  0  0  0
    7.2977    4.5680   13.3010 H   0  0  0  0  0  0
    6.6180    6.4649   11.4175 H   0  0  0  0  0  0
    5.8212    0.6132   15.0746 H   0  0  0  0  0  0
    5.2455   -1.1197   16.6773 H   0  0  0  0  0  0
    2.9783   -2.1396   16.6757 H   0  0  0  0  0  0
    1.0224   -2.5753   15.4372 H   0  0  0  0  0  0
   -2.6913   -0.8408   13.6216 H   0  0  0  0  0  0
   -4.4541   -2.5242   13.2968 H   0  0  0  0  0  0
   -1.9889   -5.4906   15.2272 H   0  0  0  0  0  0
   -0.2333   -3.8347   15.5726 H   0  0  0  0  0  0
    1.8648    0.3281   13.3421 H   0  0  0  0  0  0
    0.5745    4.1701    8.8216 H   0  0  0  0  0  0
   -0.4604    6.3223    8.2572 H   0  0  0  0  0  0
  1  2  1  0  0  0
  1 39  1  0  0  0
  1 40  1  0  0  0
  1 41  1  0  0  0
  2  3  1  0  0  0
  2  4  1  0  0  0
  2  5  1  0  0  0
  3 42  1  0  0  0
  3 43  1  0  0  0
  3 44  1  0  0  0
  4 45  1  0  0  0
  4 46  1  0  0  0
  4 47  1  0  0  0
  5  6  2  0  0  0
  5 38  1  0  0  0
  6  7  1  0  0  0
  6 48  1  0  0  0
  7  8  2  0  0  0
  7 49  1  0  0  0
  8  9  1  0  0  0
  8 37  1  0  0  0
  9 10  1  0  0  0
  9 50  1  0  0  0
 10 11  2  0  0  0
 10 18  1  0  0  0
 11 12  1  0  0  0
 12 13  2  0  0  0
 12 19  1  0  0  0
 13 14  1  0  0  0
 13 51  1  0  0  0
 14 15  1  0  0  0
 14 18  1  0  0  0
 15 16  2  0  0  0
 15 52  1  0  0  0
 16 17  1  0  0  0
 16 53  1  0  0  0
 17 18  2  0  0  0
 19 20  2  0  0  0
 19 36  1  0  0  0
 20 21  1  0  0  0
 20 54  1  0  0  0
 21 22  2  0  0  0
 21 55  1  0  0  0
 22 23  1  0  0  0
 22 56  1  0  0  0
 23 24  1  0  0  0
 23 36  2  0  0  0
 24 25  1  0  0  0
 24 57  1  0  0  0
 25 26  2  0  0  0
 25 27  1  0  0  0
 27 28  2  0  0  0
 27 32  1  0  0  0
 28 29  1  0  0  0
 28 58  1  0  0  0
 29 30  2  0  0  0
 29 59  1  0  0  0
 30 31  1  0  0  0
 30 33  1  0  0  0
 31 32  2  0  0  0
 31 60  1  0  0  0
 32 61  1  0  0  0
 33 34  2  0  0  0
 33 35  1  0  0  0
 36 62  1  0  0  0
 37 38  2  0  0  0
 37 63  1  0  0  0
 38 64  1  0  0  0
M  CHG  1  35  -1
M  END
> <s_m_entry_id>
714

> <IC50[nM]>
65

> <s_m_Source_Path>
/projects/mai/users/kmzp800_harry/pmx_colab/docking_jobs/syk

> <s_m_Source_File>
tnks2_lig.sdf

> <i_m_Source_File_Index>
35

> <s_m_job_name>
glide-dock_SP_tnks2_no_const

> <r_i_docking_score>
-6.61937865799279

> <r_i_glide_gscore>
-6.61937865799279

> <r_i_glide_emodel>
-73.7154730453125

$$$$
CHEMBL3265000
                    3D
 Schrodinger Suite 2021-4.
 67 71  0  0  1  0            999 V2000
   -4.0229    3.8138    8.9088 C   0  0  0  0  0  0
   -3.3666    3.8709   10.1690 O   0  0  0  0  0  0
   -1.9862    3.9198   10.1772 C   0  0  0  0  0  0
   -1.1924    3.9081    9.0032 C   0  0  0  0  0  0
    0.2093    3.9694    9.0815 C   0  0  0  0  0  0
    0.8490    3.9953   10.3323 C   0  0  0  0  0  0
    2.2466    4.0543   10.3662 N   0  0  0  0  0  0
    3.1025    3.6011   11.3763 C   0  0  0  0  0  0
    2.7881    2.5292   12.0440 N   0  0  0  0  0  0
    3.6351    2.0539   13.0229 C   0  0  0  0  0  0
    4.8265    2.6800   13.3197 C   0  0  0  0  0  0
    5.1489    3.7974   12.6157 N   0  0  0  0  0  0
    6.2533    4.6258   12.6563 C   0  0  0  0  0  0
    6.0422    5.5960   11.7165 C   0  0  0  0  0  0
    4.8352    5.4048   11.0580 N   0  0  0  0  0  0
    4.3052    4.3129   11.6080 C   0  0  0  0  0  0
    3.1521    0.8614   13.7704 C   0  0  0  0  0  0
    4.0121    0.0966   14.6023 C   0  0  0  0  0  0
    3.4921   -0.9177   15.4250 C   0  0  0  0  0  0
    2.1245   -1.2382   15.3884 C   0  0  0  0  0  0
    1.2607   -0.5637   14.4963 C   0  0  0  0  0  0
    1.7846    0.4894   13.7177 C   0  0  0  0  0  0
   -0.1971   -0.9231   14.3715 C   0  0  0  0  0  0
   -0.9868   -0.1599   13.8139 O   0  0  0  0  0  0
   -0.5343   -2.1222   14.8748 N   0  0  0  0  0  0
   -1.7871   -2.7863   14.8372 C   0  0  0  0  0  0
   -2.0129   -3.7674   15.8189 C   0  0  0  0  0  0
   -3.1908   -4.5356   15.8082 C   0  0  0  0  0  0
   -4.1492   -4.3544   14.7885 C   0  0  0  0  0  0
   -3.9368   -3.3514   13.8138 C   0  0  0  0  0  0
   -2.7675   -2.5669   13.8406 C   0  0  0  0  0  0
   -5.3798   -5.2146   14.7663 C   0  0  0  0  0  0
   -5.9628   -5.4403   15.8262 O   0  0  0  0  0  0
   -5.6308   -5.7183   13.5354 N   0  5  0  0  0  0
   -6.7716   -6.8250   13.2517 S   0  0  0  0  0  0
   -6.7448   -7.9409   14.2069 O   0  0  0  0  0  0
   -6.7706   -7.1859   11.8262 O   0  0  0  0  0  0
   -8.3240   -5.9000   13.5362 C   0  0  0  0  0  0
    0.0685    4.0188   11.5077 C   0  0  0  0  0  0
   -1.3408    4.0050   11.4309 C   0  0  0  0  0  0
   -2.0987    4.0699   12.5724 O   0  0  0  0  0  0
   -1.9871    5.3118   13.2695 C   0  0  0  0  0  0
   -5.1019    3.8230    9.0640 H   0  0  0  0  0  0
   -3.7707    4.6701    8.2819 H   0  0  0  0  0  0
   -3.7824    2.8885    8.3883 H   0  0  0  0  0  0
   -1.6329    3.8538    8.0211 H   0  0  0  0  0  0
    0.7952    3.9674    8.1737 H   0  0  0  0  0  0
    2.6727    4.7226    9.7402 H   0  0  0  0  0  0
    5.5235    2.3639   14.0863 H   0  0  0  0  0  0
    7.0764    4.4242   13.3258 H   0  0  0  0  0  0
    6.6901    6.4125   11.4177 H   0  0  0  0  0  0
    5.0666    0.3177   14.6645 H   0  0  0  0  0  0
    4.1528   -1.4566   16.0881 H   0  0  0  0  0  0
    1.7675   -2.0231   16.0391 H   0  0  0  0  0  0
    1.1065    1.0364   13.0781 H   0  0  0  0  0  0
    0.1956   -2.6090   15.3738 H   0  0  0  0  0  0
   -1.2762   -3.9467   16.5894 H   0  0  0  0  0  0
   -3.3395   -5.2852   16.5729 H   0  0  0  0  0  0
   -4.6657   -3.1925   13.0328 H   0  0  0  0  0  0
   -2.6293   -1.8287   13.0667 H   0  0  0  0  0  0
   -9.1649   -6.5461   13.2916 H   0  0  0  0  0  0
   -8.3402   -5.0192   12.8957 H   0  0  0  0  0  0
   -8.3851   -5.6081   14.5843 H   0  0  0  0  0  0
    0.5451    4.0677   12.4752 H   0  0  0  0  0  0
   -2.5671    5.2862   14.1934 H   0  0  0  0  0  0
   -0.9562    5.5615   13.5408 H   0  0  0  0  0  0
   -2.3911    6.1178   12.6447 H   0  0  0  0  0  0
  1  2  1  0  0  0
  1 43  1  0  0  0
  1 44  1  0  0  0
  1 45  1  0  0  0
  2  3  1  0  0  0
  3  4  2  0  0  0
  3 40  1  0  0  0
  4  5  1  0  0  0
  4 46  1  0  0  0
  5  6  2  0  0  0
  5 47  1  0  0  0
  6  7  1  0  0  0
  6 39  1  0  0  0
  7  8  1  0  0  0
  7 48  1  0  0  0
  8  9  2  0  0  0
  8 16  1  0  0  0
  9 10  1  0  0  0
 10 11  2  0  0  0
 10 17  1  0  0  0
 11 12  1  0  0  0
 11 49  1  0  0  0
 12 13  1  0  0  0
 12 16  1  0  0  0
 13 14  2  0  0  0
 13 50  1  0  0  0
 14 15  1  0  0  0
 14 51  1  0  0  0
 15 16  2  0  0  0
 17 18  2  0  0  0
 17 22  1  0  0  0
 18 19  1  0  0  0
 18 52  1  0  0  0
 19 20  2  0  0  0
 19 53  1  0  0  0
 20 21  1  0  0  0
 20 54  1  0  0  0
 21 22  2  0  0  0
 21 23  1  0  0  0
 22 55  1  0  0  0
 23 24  2  0  0  0
 23 25  1  0  0  0
 25 26  1  0  0  0
 25 56  1  0  0  0
 26 27  2  0  0  0
 26 31  1  0  0  0
 27 28  1  0  0  0
 27 57  1  0  0  0
 28 29  2  0  0  0
 28 58  1  0  0  0
 29 30  1  0  0  0
 29 32  1  0  0  0
 30 31  2  0  0  0
 30 59  1  0  0  0
 31 60  1  0  0  0
 32 33  2  0  0  0
 32 34  1  0  0  0
 34 35  1  0  0  0
 35 36  2  0  0  0
 35 37  2  0  0  0
 35 38  1  0  0  0
 38 61  1  0  0  0
 38 62  1  0  0  0
 38 63  1  0  0  0
 39 40  2  0  0  0
 39 64  1  0  0  0
 40 41  1  0  0  0
 41 42  1  0  0  0
 42 65  1  0  0  0
 42 66  1  0  0  0
 42 67  1  0  0  0
M  CHG  1  34  -1
M  END
> <s_m_entry_id>
715

> <IC50[nM]>
2.2

> <s_m_Source_Path>
/projects/mai/users/kmzp800_harry/pmx_colab/docking_jobs/syk

> <s_m_Source_File>
tnks2_lig.sdf

> <i_m_Source_File_Index>
36

> <s_m_job_name>
glide-dock_SP_tnks2_no_const

> <r_i_docking_score>
-7.68461678132646

> <r_i_glide_gscore>
-7.68461678132646

> <r_i_glide_emodel>
-81.6360501048012

$$$$
CHEMBL3265034
                    3D
 Schrodinger Suite 2021-4.
 53 58  0  0  1  0            999 V2000
   -5.8452   -1.9797   15.9021 C   0  0  0  0  0  0
   -4.3784   -1.5352   15.7943 C   0  0  0  0  0  0
   -3.5540   -2.5356   14.9651 C   0  0  0  0  0  0
   -4.2813   -2.8346   13.6366 C   0  0  0  0  0  0
   -5.7586   -3.1876   13.8765 C   0  0  0  0  0  0
   -6.3893   -2.1339   14.5950 O   0  0  0  0  0  0
   -2.1203   -2.0613   14.7492 C   0  0  0  0  0  0
   -1.0621   -2.6384   15.4830 C   0  0  0  0  0  0
    0.2665   -2.1978   15.2941 C   0  0  0  0  0  0
    0.5658   -1.1842   14.3580 C   0  0  0  0  0  0
    1.9116   -0.7994   14.1911 N   0  0  0  0  0  0
    2.4641    0.4392   13.8176 C   0  0  0  0  0  0
    1.7014    1.3474   13.2856 N   0  0  0  0  0  0
    2.1956    2.5970   13.0106 C   0  0  0  0  0  0
    3.5052    2.9398   13.2482 C   0  0  0  0  0  0
    4.3077    1.9980   13.8154 N   0  0  0  0  0  0
    5.6304    2.0356   14.2171 C   0  0  0  0  0  0
    5.9001    0.8185   14.7825 C   0  0  0  0  0  0
    4.7760    0.0048   14.7587 N   0  0  0  0  0  0
    3.8295    0.7043   14.1352 C   0  0  0  0  0  0
    1.1928    3.5543   12.4931 C   0  0  0  0  0  0
    0.1245    3.1147   11.6722 C   0  0  0  0  0  0
   -0.8486    4.0044   11.1779 C   0  0  0  0  0  0
   -0.7967    5.3744   11.5078 C   0  0  0  0  0  0
   -1.5680    6.5455   11.2307 C   0  0  0  0  0  0
   -1.0622    7.6039   11.8167 N   0  0  0  0  0  0
    0.0303    7.1622   12.4908 N   0  0  0  0  0  0
    0.2691    5.8080   12.3406 C   0  0  0  0  0  0
    1.2570    4.9290   12.8198 C   0  0  0  0  0  0
   -0.4993   -0.6260   13.6129 C   0  0  0  0  0  0
   -1.8258   -1.0425   13.8204 C   0  0  0  0  0  0
   -5.9315   -2.9096   16.4664 H   0  0  0  0  0  0
   -6.4250   -1.2299   16.4386 H   0  0  0  0  0  0
   -3.9702   -1.4341   16.7983 H   0  0  0  0  0  0
   -4.3356   -0.5473   15.3366 H   0  0  0  0  0  0
   -3.5136   -3.4702   15.5263 H   0  0  0  0  0  0
   -4.2497   -1.9747   12.9706 H   0  0  0  0  0  0
   -3.7819   -3.6476   13.1079 H   0  0  0  0  0  0
   -5.8509   -4.1299   14.4211 H   0  0  0  0  0  0
   -6.2727   -3.3193   12.9241 H   0  0  0  0  0  0
   -1.2628   -3.4154   16.2090 H   0  0  0  0  0  0
    1.0498   -2.6574   15.8778 H   0  0  0  0  0  0
    2.5815   -1.3959   14.6519 H   0  0  0  0  0  0
    3.9308    3.9189   13.0510 H   0  0  0  0  0  0
    6.2351    2.9175   14.0617 H   0  0  0  0  0  0
    6.8242    0.4633   15.2159 H   0  0  0  0  0  0
    0.0379    2.0690   11.4168 H   0  0  0  0  0  0
   -1.6436    3.6362   10.5446 H   0  0  0  0  0  0
   -2.4645    6.6411   10.6339 H   0  0  0  0  0  0
    0.6088    7.8049   13.0307 H   0  0  0  0  0  0
    2.0386    5.3102   13.4589 H   0  0  0  0  0  0
   -0.3322    0.1202   12.8567 H   0  0  0  0  0  0
   -2.6047   -0.5783   13.2356 H   0  0  0  0  0  0
  1  2  1  0  0  0
  1  6  1  0  0  0
  1 32  1  0  0  0
  1 33  1  0  0  0
  2  3  1  0  0  0
  2 34  1  0  0  0
  2 35  1  0  0  0
  3  4  1  0  0  0
  3  7  1  0  0  0
  3 36  1  0  0  0
  4  5  1  0  0  0
  4 37  1  0  0  0
  4 38  1  0  0  0
  5  6  1  0  0  0
  5 39  1  0  0  0
  5 40  1  0  0  0
  7  8  2  0  0  0
  7 31  1  0  0  0
  8  9  1  0  0  0
  8 41  1  0  0  0
  9 10  2  0  0  0
  9 42  1  0  0  0
 10 11  1  0  0  0
 10 30  1  0  0  0
 11 12  1  0  0  0
 11 43  1  0  0  0
 12 13  2  0  0  0
 12 20  1  0  0  0
 13 14  1  0  0  0
 14 15  2  0  0  0
 14 21  1  0  0  0
 15 16  1  0  0  0
 15 44  1  0  0  0
 16 17  1  0  0  0
 16 20  1  0  0  0
 17 18  2  0  0  0
 17 45  1  0  0  0
 18 19  1  0  0  0
 18 46  1  0  0  0
 19 20  2  0  0  0
 21 22  2  0  0  0
 21 29  1  0  0  0
 22 23  1  0  0  0
 22 47  1  0  0  0
 23 24  2  0  0  0
 23 48  1  0  0  0
 24 25  1  0  0  0
 24 28  1  0  0  0
 25 26  2  0  0  0
 25 49  1  0  0  0
 26 27  1  0  0  0
 27 28  1  0  0  0
 27 50  1  0  0  0
 28 29  2  0  0  0
 29 51  1  0  0  0
 30 31  2  0  0  0
 30 52  1  0  0  0
 31 53  1  0  0  0
M  END
> <s_m_entry_id>
716

> <IC50[nM]>
3.8

> <s_m_Source_Path>
/projects/mai/users/kmzp800_harry/pmx_colab/docking_jobs/syk

> <s_m_Source_File>
tnks2_lig.sdf

> <i_m_Source_File_Index>
37

> <s_m_job_name>
glide-dock_SP_tnks2_no_const

> <r_i_docking_score>
-6.2393199911561

> <r_i_glide_gscore>
-6.2393199911561

> <r_i_glide_emodel>
-63.974037171443

$$$$
CHEMBL3265026
                    3D
 Schrodinger Suite 2021-4.
 51 55  0  0  1  0            999 V2000
   -5.0247   -4.9088   13.6435 C   0  0  0  0  0  0
   -3.8448   -5.4672   14.2026 O   0  0  0  0  0  0
   -2.8486   -4.6058   14.6192 C   0  0  0  0  0  0
   -2.9071   -3.2017   14.4364 C   0  0  0  0  0  0
   -1.8412   -2.3819   14.8468 C   0  0  0  0  0  0
   -0.6917   -2.9445   15.4376 C   0  0  0  0  0  0
    0.4229   -2.1812   15.8173 N   0  0  0  0  0  0
    1.0838   -1.1861   15.0851 C   0  0  0  0  0  0
    0.4090   -0.4941   14.2148 N   0  0  0  0  0  0
    1.0421    0.4564   13.4535 C   0  0  0  0  0  0
    2.4032    0.6499   13.5035 C   0  0  0  0  0  0
    3.0992   -0.0392   14.4436 N   0  0  0  0  0  0
    4.4303    0.0044   14.8144 C   0  0  0  0  0  0
    4.5577   -0.7962   15.9144 C   0  0  0  0  0  0
    3.3481   -1.4146   16.2163 N   0  0  0  0  0  0
    2.4711   -0.9574   15.3192 C   0  0  0  0  0  0
    0.1499    1.2916   12.6163 C   0  0  0  0  0  0
   -1.1120    0.8141   12.1839 C   0  0  0  0  0  0
   -1.9518    1.6020   11.3752 C   0  0  0  0  0  0
   -1.5402    2.8754   10.9475 C   0  0  0  0  0  0
   -2.3725    3.5992   10.1208 O   0  0  0  0  0  0
   -1.7501    4.6797    9.4292 C   0  0  0  0  0  0
   -0.8851    5.5023   10.3953 C   0  0  0  0  0  0
    0.1354    4.6608   11.0028 N   0  0  0  0  0  0
   -0.2934    3.3832   11.3877 C   0  0  0  0  0  0
    0.5313    2.5960   12.2174 C   0  0  0  0  0  0
   -0.6566   -4.3335   15.6664 C   0  0  0  0  0  0
   -1.7199   -5.1761   15.2533 C   0  0  0  0  0  0
   -1.7149   -6.5484   15.4139 O   0  0  0  0  0  0
   -0.6974   -7.1342   16.2156 C   0  0  0  0  0  0
   -5.7258   -5.7075   13.4066 H   0  0  0  0  0  0
   -4.8130   -4.3733   12.7171 H   0  0  0  0  0  0
   -5.5180   -4.2354   14.3463 H   0  0  0  0  0  0
   -3.7569   -2.7262   13.9722 H   0  0  0  0  0  0
   -1.9225   -1.3173   14.6965 H   0  0  0  0  0  0
    1.0480   -2.6448   16.4682 H   0  0  0  0  0  0
    2.9519    1.3685   12.9066 H   0  0  0  0  0  0
    5.1299    0.6394   14.2888 H   0  0  0  0  0  0
    5.4408   -0.9994   16.5045 H   0  0  0  0  0  0
   -1.4452   -0.1779   12.4562 H   0  0  0  0  0  0
   -2.8990    1.2053   11.0389 H   0  0  0  0  0  0
   -1.1482    4.2853    8.6083 H   0  0  0  0  0  0
   -2.5215    5.3066    8.9807 H   0  0  0  0  0  0
   -0.4000    6.3204    9.8631 H   0  0  0  0  0  0
   -1.5005    5.9441   11.1800 H   0  0  0  0  0  0
    0.8935    5.1072   11.4984 H   0  0  0  0  0  0
    1.4741    3.0079   12.5420 H   0  0  0  0  0  0
    0.2185   -4.7413   16.1465 H   0  0  0  0  0  0
   -0.8372   -8.2136   16.2260 H   0  0  0  0  0  0
    0.3002   -6.9407   15.8195 H   0  0  0  0  0  0
   -0.7530   -6.7954   17.2490 H   0  0  0  0  0  0
  1  2  1  0  0  0
  1 31  1  0  0  0
  1 32  1  0  0  0
  1 33  1  0  0  0
  2  3  1  0  0  0
  3  4  2  0  0  0
  3 28  1  0  0  0
  4  5  1  0  0  0
  4 34  1  0  0  0
  5  6  2  0  0  0
  5 35  1  0  0  0
  6  7  1  0  0  0
  6 27  1  0  0  0
  7  8  1  0  0  0
  7 36  1  0  0  0
  8  9  2  0  0  0
  8 16  1  0  0  0
  9 10  1  0  0  0
 10 11  2  0  0  0
 10 17  1  0  0  0
 11 12  1  0  0  0
 11 37  1  0  0  0
 12 13  1  0  0  0
 12 16  1  0  0  0
 13 14  2  0  0  0
 13 38  1  0  0  0
 14 15  1  0  0  0
 14 39  1  0  0  0
 15 16  2  0  0  0
 17 18  2  0  0  0
 17 26  1  0  0  0
 18 19  1  0  0  0
 18 40  1  0  0  0
 19 20  2  0  0  0
 19 41  1  0  0  0
 20 21  1  0  0  0
 20 25  1  0  0  0
 21 22  1  0  0  0
 22 23  1  0  0  0
 22 42  1  0  0  0
 22 43  1  0  0  0
 23 24  1  0  0  0
 23 44  1  0  0  0
 23 45  1  0  0  0
 24 25  1  0  0  0
 24 46  1  0  0  0
 25 26  2  0  0  0
 26 47  1  0  0  0
 27 28  2  0  0  0
 27 48  1  0  0  0
 28 29  1  0  0  0
 29 30  1  0  0  0
 30 49  1  0  0  0
 30 50  1  0  0  0
 30 51  1  0  0  0
M  END
> <s_m_entry_id>
717

> <IC50[nM]>
4.7

> <s_m_Source_Path>
/projects/mai/users/kmzp800_harry/pmx_colab/docking_jobs/syk

> <s_m_Source_File>
tnks2_lig.sdf

> <i_m_Source_File_Index>
38

> <s_m_job_name>
glide-dock_SP_tnks2_no_const

> <r_i_docking_score>
-6.81321855420205

> <r_i_glide_gscore>
-6.81321855420205

> <r_i_glide_emodel>
-60.1285851627998

$$$$
CHEMBL3265033
                    3D
 Schrodinger Suite 2021-4.
 54 59  0  0  1  0            999 V2000
   -1.3846    8.7665    9.4330 O   0  0  0  0  0  0
    0.0574    8.7106    9.1334 S   0  0  0  0  0  0
    0.6932    9.7723    8.3390 O   0  0  0  0  0  0
    0.4188    7.0897    8.3480 C   0  0  0  0  0  0
    0.0284    5.9422    9.2884 C   0  0  0  0  0  0
    0.7148    6.0512   10.5717 N   0  0  0  0  0  0
    0.4977    7.2197   11.4218 C   0  0  0  0  0  0
    0.9603    8.4972   10.7139 C   0  0  0  0  0  0
    1.4394    4.9577   11.0729 C   0  0  0  0  0  0
    2.4011    4.3110   10.2650 C   0  0  0  0  0  0
    3.1788    3.2593   10.7865 C   0  0  0  0  0  0
    2.9754    2.8153   12.1073 C   0  0  0  0  0  0
    3.7966    1.8064   12.6179 N   0  0  0  0  0  0
    3.4684    0.8337   13.5689 C   0  0  0  0  0  0
    2.2557    0.3620   13.6081 N   0  0  0  0  0  0
    1.9163   -0.5870   14.5503 C   0  0  0  0  0  0
    2.8360   -1.0740   15.4556 C   0  0  0  0  0  0
    4.0947   -0.5603   15.4180 N   0  0  0  0  0  0
    5.2052   -0.7810   16.2162 C   0  0  0  0  0  0
    6.2006    0.0039   15.7065 C   0  0  0  0  0  0
    5.7581    0.7471   14.6212 N   0  0  0  0  0  0
    4.4797    0.4047   14.4628 C   0  0  0  0  0  0
    0.4940   -1.0192   14.5529 C   0  0  0  0  0  0
   -0.4658   -0.4073   13.7011 C   0  0  0  0  0  0
   -1.8211   -0.7958   13.7056 C   0  0  0  0  0  0
   -2.2770   -1.8126   14.5681 C   0  0  0  0  0  0
   -3.5147   -2.4695   14.8667 C   0  0  0  0  0  0
   -3.3717   -3.3694   15.8087 N   0  0  0  0  0  0
   -2.0563   -3.3376   16.1476 N   0  0  0  0  0  0
   -1.3186   -2.4195   15.4188 C   0  0  0  0  0  0
    0.0340   -2.0444   15.4172 C   0  0  0  0  0  0
    1.9934    3.4373   12.9073 C   0  0  0  0  0  0
    1.2370    4.5061   12.3960 C   0  0  0  0  0  0
   -0.1402    7.0350    7.4175 H   0  0  0  0  0  0
    1.4825    7.0574    8.1106 H   0  0  0  0  0  0
    0.2348    4.9819    8.8127 H   0  0  0  0  0  0
   -1.0472    5.9693    9.4697 H   0  0  0  0  0  0
   -0.5636    7.2874   11.6700 H   0  0  0  0  0  0
    1.0399    7.1277   12.3645 H   0  0  0  0  0  0
    0.8034    9.3785   11.3352 H   0  0  0  0  0  0
    2.0293    8.4475   10.4963 H   0  0  0  0  0  0
    2.5754    4.6460    9.2533 H   0  0  0  0  0  0
    3.9320    2.7939   10.1653 H   0  0  0  0  0  0
    4.7916    1.9519   12.5090 H   0  0  0  0  0  0
    2.6260   -1.8009   16.2309 H   0  0  0  0  0  0
    5.2267   -1.4967   17.0169 H   0  0  0  0  0  0
    7.2303    0.0042   16.0212 H   0  0  0  0  0  0
   -0.1700    0.3769   13.0202 H   0  0  0  0  0  0
   -2.5087   -0.3143   13.0294 H   0  0  0  0  0  0
   -4.4893   -2.3074   14.4297 H   0  0  0  0  0  0
   -1.7060   -3.9427   16.8838 H   0  0  0  0  0  0
    0.6958   -2.5561   16.0985 H   0  0  0  0  0  0
    1.8369    3.1198   13.9282 H   0  0  0  0  0  0
    0.5040    4.9777   13.0341 H   0  0  0  0  0  0
  1  2  2  0  0  0
  2  3  2  0  0  0
  2  4  1  0  0  0
  2  8  1  0  0  0
  4  5  1  0  0  0
  4 34  1  0  0  0
  4 35  1  0  0  0
  5  6  1  0  0  0
  5 36  1  0  0  0
  5 37  1  0  0  0
  6  7  1  0  0  0
  6  9  1  0  0  0
  7  8  1  0  0  0
  7 38  1  0  0  0
  7 39  1  0  0  0
  8 40  1  0  0  0
  8 41  1  0  0  0
  9 10  2  0  0  0
  9 33  1  0  0  0
 10 11  1  0  0  0
 10 42  1  0  0  0
 11 12  2  0  0  0
 11 43  1  0  0  0
 12 13  1  0  0  0
 12 32  1  0  0  0
 13 14  1  0  0  0
 13 44  1  0  0  0
 14 15  2  0  0  0
 14 22  1  0  0  0
 15 16  1  0  0  0
 16 17  2  0  0  0
 16 23  1  0  0  0
 17 18  1  0  0  0
 17 45  1  0  0  0
 18 19  1  0  0  0
 18 22  1  0  0  0
 19 20  2  0  0  0
 19 46  1  0  0  0
 20 21  1  0  0  0
 20 47  1  0  0  0
 21 22  2  0  0  0
 23 24  2  0  0  0
 23 31  1  0  0  0
 24 25  1  0  0  0
 24 48  1  0  0  0
 25 26  2  0  0  0
 25 49  1  0  0  0
 26 27  1  0  0  0
 26 30  1  0  0  0
 27 28  2  0  0  0
 27 50  1  0  0  0
 28 29  1  0  0  0
 29 30  1  0  0  0
 29 51  1  0  0  0
 30 31  2  0  0  0
 31 52  1  0  0  0
 32 33  2  0  0  0
 32 53  1  0  0  0
 33 54  1  0  0  0
M  END
> <s_m_entry_id>
718

> <IC50[nM]>
2.1

> <s_m_Source_Path>
/projects/mai/users/kmzp800_harry/pmx_colab/docking_jobs/syk

> <s_m_Source_File>
tnks2_lig.sdf

> <i_m_Source_File_Index>
39

> <s_m_job_name>
glide-dock_SP_tnks2_no_const

> <r_i_docking_score>
-6.40968443844956

> <r_i_glide_gscore>
-6.40968443844956

> <r_i_glide_emodel>
-66.672907568472

$$$$
CHEMBL3265011
                    3D
 Schrodinger Suite 2021-4.
 51 54  0  0  1  0            999 V2000
    0.6446    6.8030   12.6163 C   0  0  0  0  0  0
    0.0782    6.0158   11.5826 O   0  0  0  0  0  0
   -0.2257    4.6990   11.8495 C   0  0  0  0  0  0
   -0.0192    4.0740   13.1024 C   0  0  0  0  0  0
   -0.3559    2.7197   13.2858 C   0  0  0  0  0  0
   -0.9151    1.9671   12.2313 C   0  0  0  0  0  0
   -1.3107    0.6299   12.3898 N   0  0  0  0  0  0
   -0.9502   -0.2576   13.4122 C   0  0  0  0  0  0
   -1.9245   -0.9877   13.8699 N   0  0  0  0  0  0
   -1.6736   -1.8957   14.8735 C   0  0  0  0  0  0
   -0.4261   -2.0806   15.4169 C   0  0  0  0  0  0
    0.5956   -1.3431   14.9124 N   0  0  0  0  0  0
    1.9390   -1.3049   15.2301 C   0  0  0  0  0  0
    2.5132   -0.4005   14.3818 C   0  0  0  0  0  0
    1.5610    0.1608   13.5420 N   0  0  0  0  0  0
    0.3966   -0.3998   13.8761 C   0  0  0  0  0  0
   -2.8627   -2.6156   15.3723 C   0  0  0  0  0  0
   -3.9637   -1.8514   15.8160 C   0  0  0  0  0  0
   -5.1346   -2.4532   16.3110 C   0  0  0  0  0  0
   -5.2294   -3.8566   16.3407 C   0  0  0  0  0  0
   -4.1361   -4.6386   15.9211 C   0  0  0  0  0  0
   -2.9532   -4.0314   15.4443 C   0  0  0  0  0  0
   -1.8015   -4.9286   15.0231 C   0  0  0  0  0  0
   -6.2609   -1.5964   16.7902 C   0  0  0  0  0  0
   -7.3581   -1.5992   16.2353 O   0  0  0  0  0  0
   -5.9707   -0.8122   17.8287 N   0  0  0  0  0  0
   -1.1279    2.5943   10.9887 C   0  0  0  0  0  0
   -0.7599    3.9463   10.7831 C   0  0  0  0  0  0
   -0.9076    4.5871    9.5737 O   0  0  0  0  0  0
   -0.6227    3.8245    8.4133 C   0  0  0  0  0  0
    0.8313    7.8010   12.2177 H   0  0  0  0  0  0
   -0.0329    6.8988   13.4663 H   0  0  0  0  0  0
    1.6008    6.4003   12.9554 H   0  0  0  0  0  0
    0.3937    4.6151   13.9411 H   0  0  0  0  0  0
   -0.1926    2.2752   14.2551 H   0  0  0  0  0  0
   -2.0791    0.3233   11.8097 H   0  0  0  0  0  0
   -0.2042   -2.7700   16.2275 H   0  0  0  0  0  0
    2.3338   -1.9399   16.0101 H   0  0  0  0  0  0
    3.5493   -0.1015   14.3114 H   0  0  0  0  0  0
   -3.9007   -0.7758   15.7837 H   0  0  0  0  0  0
   -6.1251   -4.3350   16.7107 H   0  0  0  0  0  0
   -4.2061   -5.7149   15.9762 H   0  0  0  0  0  0
   -2.1658   -5.8952   14.6749 H   0  0  0  0  0  0
   -1.2206   -4.4851   14.2165 H   0  0  0  0  0  0
   -1.1365   -5.1029   15.8699 H   0  0  0  0  0  0
   -6.6879   -0.2201   18.2173 H   0  0  0  0  0  0
   -5.0761   -0.9081   18.3038 H   0  0  0  0  0  0
   -1.5698    2.0181   10.1943 H   0  0  0  0  0  0
   -0.3990    4.4968    7.5847 H   0  0  0  0  0  0
    0.2609    3.2033    8.5552 H   0  0  0  0  0  0
   -1.4725    3.2037    8.1316 H   0  0  0  0  0  0
  1  2  1  0  0  0
  1 31  1  0  0  0
  1 32  1  0  0  0
  1 33  1  0  0  0
  2  3  1  0  0  0
  3  4  2  0  0  0
  3 28  1  0  0  0
  4  5  1  0  0  0
  4 34  1  0  0  0
  5  6  2  0  0  0
  5 35  1  0  0  0
  6  7  1  0  0  0
  6 27  1  0  0  0
  7  8  1  0  0  0
  7 36  1  0  0  0
  8  9  2  0  0  0
  8 16  1  0  0  0
  9 10  1  0  0  0
 10 11  2  0  0  0
 10 17  1  0  0  0
 11 12  1  0  0  0
 11 37  1  0  0  0
 12 13  1  0  0  0
 12 16  1  0  0  0
 13 14  2  0  0  0
 13 38  1  0  0  0
 14 15  1  0  0  0
 14 39  1  0  0  0
 15 16  2  0  0  0
 17 18  2  0  0  0
 17 22  1  0  0  0
 18 19  1  0  0  0
 18 40  1  0  0  0
 19 20  2  0  0  0
 19 24  1  0  0  0
 20 21  1  0  0  0
 20 41  1  0  0  0
 21 22  2  0  0  0
 21 42  1  0  0  0
 22 23  1  0  0  0
 23 43  1  0  0  0
 23 44  1  0  0  0
 23 45  1  0  0  0
 24 25  2  0  0  0
 24 26  1  0  0  0
 26 46  1  0  0  0
 26 47  1  0  0  0
 27 28  2  0  0  0
 27 48  1  0  0  0
 28 29  1  0  0  0
 29 30  1  0  0  0
 30 49  1  0  0  0
 30 50  1  0  0  0
 30 51  1  0  0  0
M  END
> <s_m_entry_id>
719

> <IC50[nM]>
466

> <s_m_Source_Path>
/projects/mai/users/kmzp800_harry/pmx_colab/docking_jobs/syk

> <s_m_Source_File>
tnks2_lig.sdf

> <i_m_Source_File_Index>
40

> <s_m_job_name>
glide-dock_SP_tnks2_no_const

> <r_i_docking_score>
-6.78293386434874

> <r_i_glide_gscore>
-6.78293386434874

> <r_i_glide_emodel>
-69.9764659917997

$$$$
CHEMBL3265035
                    3D
 Schrodinger Suite 2021-4.
 51 55  0  0  1  0            999 V2000
    0.5720    5.9037    8.8667 C   0  0  0  0  0  0
    1.7415    6.2248    9.6787 N   0  0  0  0  0  0
    1.9470    7.6299   10.0321 C   0  0  0  0  0  0
    1.0772    8.0719   11.2209 C   0  0  0  0  0  0
    1.2301    9.4599   11.4174 O   0  0  0  0  0  0
    2.3264    5.2053   10.4682 C   0  0  0  0  0  0
    3.6001    5.3764   11.0630 C   0  0  0  0  0  0
    4.2048    4.3353   11.7964 C   0  0  0  0  0  0
    3.5476    3.1014   11.9787 C   0  0  0  0  0  0
    4.2263    2.0858   12.6704 N   0  0  0  0  0  0
    3.7504    1.0700   13.5168 C   0  0  0  0  0  0
    2.5140    0.6481   13.4663 N   0  0  0  0  0  0
    2.0766   -0.3099   14.3656 C   0  0  0  0  0  0
    2.9086   -0.8335   15.3302 C   0  0  0  0  0  0
    4.1885   -0.3960   15.3733 N   0  0  0  0  0  0
    5.2301   -0.7161   16.2174 C   0  0  0  0  0  0
    6.3017    0.0040   15.7836 C   0  0  0  0  0  0
    5.9685    0.8049   14.7025 N   0  0  0  0  0  0
    4.6839    0.5543   14.4571 C   0  0  0  0  0  0
    0.6469   -0.7176   14.2888 C   0  0  0  0  0  0
   -0.2832   -0.0296   13.4672 C   0  0  0  0  0  0
   -1.6456   -0.3960   13.4174 C   0  0  0  0  0  0
   -2.1348   -1.4676   14.1976 C   0  0  0  0  0  0
   -3.3843   -2.1335   14.4183 C   0  0  0  0  0  0
   -3.2712   -3.1042   15.2928 N   0  0  0  0  0  0
   -1.9638   -3.1157   15.6569 N   0  0  0  0  0  0
   -1.2030   -2.1521   15.0174 C   0  0  0  0  0  0
    0.1543   -1.8015   15.0608 C   0  0  0  0  0  0
    2.2674    2.9349   11.4174 C   0  0  0  0  0  0
    1.6693    3.9665   10.6691 C   0  0  0  0  0  0
   -0.3049    5.7461    9.4955 H   0  0  0  0  0  0
    0.3458    6.7146    8.1739 H   0  0  0  0  0  0
    0.7440    5.0061    8.2715 H   0  0  0  0  0  0
    1.6866    8.2360    9.1638 H   0  0  0  0  0  0
    2.9965    7.8514   10.2174 H   0  0  0  0  0  0
    1.3701    7.5466   12.1310 H   0  0  0  0  0  0
    0.0244    7.8559   11.0394 H   0  0  0  0  0  0
    2.1654    9.6040   11.5968 H   0  0  0  0  0  0
    4.1516    6.2964   10.9500 H   0  0  0  0  0  0
    5.1871    4.4942   12.2175 H   0  0  0  0  0  0
    5.1876    2.3088   12.8914 H   0  0  0  0  0  0
    2.6250   -1.5547   16.0861 H   0  0  0  0  0  0
    5.1335   -1.4255   17.0174 H   0  0  0  0  0  0
    7.3039   -0.0056   16.1705 H   0  0  0  0  0  0
    0.0442    0.8015   12.8600 H   0  0  0  0  0  0
   -2.3162    0.1436   12.7658 H   0  0  0  0  0  0
   -4.3463   -1.9361   13.9718 H   0  0  0  0  0  0
   -1.6332   -3.7762   16.3509 H   0  0  0  0  0  0
    0.7921   -2.3883   15.7017 H   0  0  0  0  0  0
    1.7374    2.0040   11.5237 H   0  0  0  0  0  0
    0.6934    3.7749   10.2512 H   0  0  0  0  0  0
  1  2  1  0  0  0
  1 31  1  0  0  0
  1 32  1  0  0  0
  1 33  1  0  0  0
  2  3  1  0  0  0
  2  6  1  0  0  0
  3  4  1  0  0  0
  3 34  1  0  0  0
  3 35  1  0  0  0
  4  5  1  0  0  0
  4 36  1  0  0  0
  4 37  1  0  0  0
  5 38  1  0  0  0
  6  7  2  0  0  0
  6 30  1  0  0  0
  7  8  1  0  0  0
  7 39  1  0  0  0
  8  9  2  0  0  0
  8 40  1  0  0  0
  9 10  1  0  0  0
  9 29  1  0  0  0
 10 11  1  0  0  0
 10 41  1  0  0  0
 11 12  2  0  0  0
 11 19  1  0  0  0
 12 13  1  0  0  0
 13 14  2  0  0  0
 13 20  1  0  0  0
 14 15  1  0  0  0
 14 42  1  0  0  0
 15 16  1  0  0  0
 15 19  1  0  0  0
 16 17  2  0  0  0
 16 43  1  0  0  0
 17 18  1  0  0  0
 17 44  1  0  0  0
 18 19  2  0  0  0
 20 21  2  0  0  0
 20 28  1  0  0  0
 21 22  1  0  0  0
 21 45  1  0  0  0
 22 23  2  0  0  0
 22 46  1  0  0  0
 23 24  1  0  0  0
 23 27  1  0  0  0
 24 25  2  0  0  0
 24 47  1  0  0  0
 25 26  1  0  0  0
 26 27  1  0  0  0
 26 48  1  0  0  0
 27 28  2  0  0  0
 28 49  1  0  0  0
 29 30  2  0  0  0
 29 50  1  0  0  0
 30 51  1  0  0  0
M  END
> <s_m_entry_id>
720

> <IC50[nM]>
7.6

> <s_m_Source_Path>
/projects/mai/users/kmzp800_harry/pmx_colab/docking_jobs/syk

> <s_m_Source_File>
tnks2_lig.sdf

> <i_m_Source_File_Index>
41

> <s_m_job_name>
glide-dock_SP_tnks2_no_const

> <r_i_docking_score>
-6.14623375358769

> <r_i_glide_gscore>
-6.14623375358769

> <r_i_glide_emodel>
-61.7159682412994

$$$$
CHEMBL3265020
                    3D
 Schrodinger Suite 2021-4.
 48 52  0  0  1  0            999 V2000
   -4.2528   -2.8096   15.6346 C   0  0  0  0  0  0
   -3.6878   -1.9268   14.6751 O   0  0  0  0  0  0
   -2.3147   -1.7834   14.6562 C   0  0  0  0  0  0
   -1.4342   -2.5770   15.4309 C   0  0  0  0  0  0
   -0.0493   -2.3385   15.4117 C   0  0  0  0  0  0
    0.4986   -1.3170   14.6137 C   0  0  0  0  0  0
    1.8951   -1.1385   14.6826 N   0  0  0  0  0  0
    2.7399   -0.1136   14.2158 C   0  0  0  0  0  0
    2.3201    0.7275   13.3145 N   0  0  0  0  0  0
    3.1384    1.7470   12.8798 C   0  0  0  0  0  0
    4.4205    1.9099   13.3393 C   0  0  0  0  0  0
    4.8506    1.0563   14.3008 N   0  0  0  0  0  0
    6.0299    1.0159   15.0155 C   0  0  0  0  0  0
    5.8981    0.0012   15.9176 C   0  0  0  0  0  0
    4.6663   -0.6322   15.7921 N   0  0  0  0  0  0
    4.0400    0.0040   14.7935 C   0  0  0  0  0  0
    2.5599    2.6444   11.8571 C   0  0  0  0  0  0
    3.3623    3.1747   10.8185 C   0  0  0  0  0  0
    2.8034    3.9891    9.8172 C   0  0  0  0  0  0
    1.4293    4.2762    9.8514 C   0  0  0  0  0  0
    0.6078    5.0108    9.0194 N   0  0  0  0  0  0
   -0.6994    4.9889    9.4760 C   0  0  0  0  0  0
   -0.7520    4.2458   10.6261 C   0  0  0  0  0  0
    0.5843    3.7815   10.8856 C   0  0  0  0  0  0
    1.1842    2.9806   11.8843 C   0  0  0  0  0  0
   -0.3810   -0.5495   13.8114 C   0  0  0  0  0  0
   -1.7828   -0.7746   13.8253 C   0  0  0  0  0  0
   -2.6864   -0.0396   13.0796 O   0  0  0  0  0  0
   -2.1776    0.8825   12.1264 C   0  0  0  0  0  0
   -5.3400   -2.7568   15.5787 H   0  0  0  0  0  0
   -3.9620   -2.5359   16.6500 H   0  0  0  0  0  0
   -3.9646   -3.8439   15.4429 H   0  0  0  0  0  0
   -1.7953   -3.3667   16.0730 H   0  0  0  0  0  0
    0.5927   -2.9458   16.0341 H   0  0  0  0  0  0
    2.3588   -1.7420   15.3483 H   0  0  0  0  0  0
    5.0889    2.7080   13.0354 H   0  0  0  0  0  0
    6.8243    1.7192   14.8151 H   0  0  0  0  0  0
    6.6054   -0.3379   16.6568 H   0  0  0  0  0  0
    4.4136    2.9321   10.7728 H   0  0  0  0  0  0
    3.4215    4.3765    9.0217 H   0  0  0  0  0  0
    0.8997    5.5239    8.2006 H   0  0  0  0  0  0
   -1.4851    5.5110    8.9475 H   0  0  0  0  0  0
   -1.6235    4.0410   11.2304 H   0  0  0  0  0  0
    0.5629    2.5950   12.6784 H   0  0  0  0  0  0
    0.0060    0.2235   13.1763 H   0  0  0  0  0  0
   -3.0037    1.3021   11.5536 H   0  0  0  0  0  0
   -1.6633    1.7114   12.6158 H   0  0  0  0  0  0
   -1.5004    0.4031   11.4177 H   0  0  0  0  0  0
  1  2  1  0  0  0
  1 30  1  0  0  0
  1 31  1  0  0  0
  1 32  1  0  0  0
  2  3  1  0  0  0
  3  4  2  0  0  0
  3 27  1  0  0  0
  4  5  1  0  0  0
  4 33  1  0  0  0
  5  6  2  0  0  0
  5 34  1  0  0  0
  6  7  1  0  0  0
  6 26  1  0  0  0
  7  8  1  0  0  0
  7 35  1  0  0  0
  8  9  2  0  0  0
  8 16  1  0  0  0
  9 10  1  0  0  0
 10 11  2  0  0  0
 10 17  1  0  0  0
 11 12  1  0  0  0
 11 36  1  0  0  0
 12 13  1  0  0  0
 12 16  1  0  0  0
 13 14  2  0  0  0
 13 37  1  0  0  0
 14 15  1  0  0  0
 14 38  1  0  0  0
 15 16  2  0  0  0
 17 18  2  0  0  0
 17 25  1  0  0  0
 18 19  1  0  0  0
 18 39  1  0  0  0
 19 20  2  0  0  0
 19 40  1  0  0  0
 20 21  1  0  0  0
 20 24  1  0  0  0
 21 22  1  0  0  0
 21 41  1  0  0  0
 22 23  2  0  0  0
 22 42  1  0  0  0
 23 24  1  0  0  0
 23 43  1  0  0  0
 24 25  2  0  0  0
 25 44  1  0  0  0
 26 27  2  0  0  0
 26 45  1  0  0  0
 27 28  1  0  0  0
 28 29  1  0  0  0
 29 46  1  0  0  0
 29 47  1  0  0  0
 29 48  1  0  0  0
M  END
> <s_m_entry_id>
721

> <IC50[nM]>
8.6

> <s_m_Source_Path>
/projects/mai/users/kmzp800_harry/pmx_colab/docking_jobs/syk

> <s_m_Source_File>
tnks2_lig.sdf

> <i_m_Source_File_Index>
42

> <s_m_job_name>
glide-dock_SP_tnks2_no_const

> <r_i_docking_score>
-6.81035172821976

> <r_i_glide_gscore>
-6.81035172821976

> <r_i_glide_emodel>
-61.9484318156425

$$$$
CHEMBL3265032
                    3D
 Schrodinger Suite 2021-4.
 52 57  0  0  1  0            999 V2000
   -1.2879    6.1973    8.6205 C   0  0  0  0  0  0
   -2.7388    5.8402    8.9955 C   0  0  0  0  0  0
   -2.8743    5.7221   10.4463 N   0  0  0  0  0  0
   -2.3957    6.9199   11.1380 C   0  0  0  0  0  0
   -0.9561    7.2707   10.7020 C   0  0  0  0  0  0
   -0.9076    7.4006    9.2842 O   0  0  0  0  0  0
   -2.6563    4.4431   11.0040 C   0  0  0  0  0  0
   -1.7694    4.2359   12.0861 C   0  0  0  0  0  0
   -1.5696    2.9504   12.6168 C   0  0  0  0  0  0
   -2.2481    1.8285   12.0908 C   0  0  0  0  0  0
   -2.0858    0.5318   12.6161 N   0  0  0  0  0  0
   -0.9895    0.0064   13.3218 C   0  0  0  0  0  0
    0.1616    0.5962   13.1938 N   0  0  0  0  0  0
    1.2501    0.1559   13.9034 C   0  0  0  0  0  0
    1.1875   -0.9361   14.7387 C   0  0  0  0  0  0
   -0.0079   -1.5728   14.8568 N   0  0  0  0  0  0
   -0.3957   -2.6651   15.6083 C   0  0  0  0  0  0
   -1.7253   -2.8594   15.3549 C   0  0  0  0  0  0
   -2.2033   -1.9134   14.4533 N   0  0  0  0  0  0
   -1.1592   -1.1378   14.1557 C   0  0  0  0  0  0
    2.4738    0.9728   13.7374 C   0  0  0  0  0  0
    3.7579    0.4167   13.9453 C   0  0  0  0  0  0
    4.9250    1.2037   13.8505 C   0  0  0  0  0  0
    4.8465    2.5835   13.5580 C   0  0  0  0  0  0
    5.7509    3.6855   13.4117 C   0  0  0  0  0  0
    5.1226    4.7986   13.1203 N   0  0  0  0  0  0
    3.8062    4.4695   13.0872 N   0  0  0  0  0  0
    3.5577    3.1317   13.3419 C   0  0  0  0  0  0
    2.3925    2.3509   13.4175 C   0  0  0  0  0  0
   -3.1544    2.0345   11.0316 C   0  0  0  0  0  0
   -3.3519    3.3221   10.4936 C   0  0  0  0  0  0
   -1.2017    6.3444    7.5436 H   0  0  0  0  0  0
   -0.6056    5.3878    8.8866 H   0  0  0  0  0  0
   -3.0388    4.9322    8.4736 H   0  0  0  0  0  0
   -3.4080    6.6266    8.6470 H   0  0  0  0  0  0
   -3.0596    7.7459   10.8808 H   0  0  0  0  0  0
   -2.4654    6.8098   12.2200 H   0  0  0  0  0  0
   -0.6447    8.2117   11.1579 H   0  0  0  0  0  0
   -0.2404    6.5140   11.0262 H   0  0  0  0  0  0
   -1.2184    5.0489   12.5317 H   0  0  0  0  0  0
   -0.8991    2.8521   13.4564 H   0  0  0  0  0  0
   -2.7706   -0.1621   12.3521 H   0  0  0  0  0  0
    2.0134   -1.3129   15.3321 H   0  0  0  0  0  0
    0.3083   -3.1758   16.2520 H   0  0  0  0  0  0
   -2.3844   -3.6116   15.7649 H   0  0  0  0  0  0
    3.8548   -0.6226   14.2174 H   0  0  0  0  0  0
    5.8902    0.7541   14.0319 H   0  0  0  0  0  0
    6.8277    3.6898   13.4989 H   0  0  0  0  0  0
    3.1113    5.1803   12.9046 H   0  0  0  0  0  0
    1.4364    2.8238   13.2572 H   0  0  0  0  0  0
   -3.7034    1.2043   10.6155 H   0  0  0  0  0  0
   -4.0601    3.4415    9.6878 H   0  0  0  0  0  0
  1  2  1  0  0  0
  1  6  1  0  0  0
  1 32  1  0  0  0
  1 33  1  0  0  0
  2  3  1  0  0  0
  2 34  1  0  0  0
  2 35  1  0  0  0
  3  4  1  0  0  0
  3  7  1  0  0  0
  4  5  1  0  0  0
  4 36  1  0  0  0
  4 37  1  0  0  0
  5  6  1  0  0  0
  5 38  1  0  0  0
  5 39  1  0  0  0
  7  8  2  0  0  0
  7 31  1  0  0  0
  8  9  1  0  0  0
  8 40  1  0  0  0
  9 10  2  0  0  0
  9 41  1  0  0  0
 10 11  1  0  0  0
 10 30  1  0  0  0
 11 12  1  0  0  0
 11 42  1  0  0  0
 12 13  2  0  0  0
 12 20  1  0  0  0
 13 14  1  0  0  0
 14 15  2  0  0  0
 14 21  1  0  0  0
 15 16  1  0  0  0
 15 43  1  0  0  0
 16 17  1  0  0  0
 16 20  1  0  0  0
 17 18  2  0  0  0
 17 44  1  0  0  0
 18 19  1  0  0  0
 18 45  1  0  0  0
 19 20  2  0  0  0
 21 22  2  0  0  0
 21 29  1  0  0  0
 22 23  1  0  0  0
 22 46  1  0  0  0
 23 24  2  0  0  0
 23 47  1  0  0  0
 24 25  1  0  0  0
 24 28  1  0  0  0
 25 26  2  0  0  0
 25 48  1  0  0  0
 26 27  1  0  0  0
 27 28  1  0  0  0
 27 49  1  0  0  0
 28 29  2  0  0  0
 29 50  1  0  0  0
 30 31  2  0  0  0
 30 51  1  0  0  0
 31 52  1  0  0  0
M  END
> <s_m_entry_id>
722

> <IC50[nM]>
10000

> <s_m_Source_Path>
/projects/mai/users/kmzp800_harry/pmx_colab/docking_jobs/syk

> <s_m_Source_File>
tnks2_lig.sdf

> <i_m_Source_File_Index>
43

> <s_m_job_name>
glide-dock_SP_tnks2_no_const

> <r_i_docking_score>
-6.21662231227693

> <r_i_glide_gscore>
-6.21662231227693

> <r_i_glide_emodel>
-65.2048413391735

$$$$
CHEMBL3265002
                    3D
 Schrodinger Suite 2021-4.
 65 70  0  0  1  0            999 V2000
   -0.0224    6.4440   11.4199 C   0  0  0  0  0  0
   -0.8976    5.5424   10.7537 O   0  0  0  0  0  0
   -1.1126    4.3020   11.3201 C   0  0  0  0  0  0
   -0.4468    3.8529   12.4854 C   0  0  0  0  0  0
   -0.7079    2.5769   13.0112 C   0  0  0  0  0  0
   -1.6173    1.7024   12.3729 C   0  0  0  0  0  0
   -1.8883    0.4047   12.8500 N   0  0  0  0  0  0
   -1.0818   -0.4173   13.6564 C   0  0  0  0  0  0
    0.1886   -0.1630   13.7142 N   0  0  0  0  0  0
    1.0282   -0.8877   14.5243 C   0  0  0  0  0  0
    0.5624   -1.9445   15.2740 C   0  0  0  0  0  0
   -0.7642   -2.2416   15.1940 N   0  0  0  0  0  0
   -1.5278   -3.2105   15.8157 C   0  0  0  0  0  0
   -2.8136   -3.0325   15.3851 C   0  0  0  0  0  0
   -2.8982   -1.9690   14.4929 N   0  0  0  0  0  0
   -1.6560   -1.4961   14.3829 C   0  0  0  0  0  0
    2.4335   -0.3956   14.5444 C   0  0  0  0  0  0
    3.4134   -0.9244   15.4172 C   0  0  0  0  0  0
    4.7226   -0.3960   15.4497 C   0  0  0  0  0  0
    5.0839    0.6819   14.6174 C   0  0  0  0  0  0
    4.1215    1.2613   13.7673 C   0  0  0  0  0  0
    2.8233    0.7020   13.7297 C   0  0  0  0  0  0
    4.4321    2.5285   13.0147 C   0  0  0  0  0  0
    5.3209    3.2810   13.4099 O   0  0  0  0  0  0
    3.7096    2.7076   11.8918 N   0  0  0  0  0  0
    3.5557    3.8566   11.0688 C   0  0  0  0  0  0
    2.6623    3.7384    9.9827 C   0  0  0  0  0  0
    2.4065    4.8327    9.1358 C   0  0  0  0  0  0
    3.0555    6.0630    9.3578 C   0  0  0  0  0  0
    3.9467    6.1880   10.4406 C   0  0  0  0  0  0
    4.1981    5.0979   11.2963 C   0  0  0  0  0  0
    2.8078    7.2011    8.4835 C   0  0  0  0  0  0
    3.7626    7.9952    7.9991 N   0  0  0  0  0  0
    3.1024    8.9412    7.2153 C   0  0  0  0  0  0
    1.7506    8.6932    7.2367 C   0  0  0  0  0  0
    1.5986    7.5832    8.0491 N   0  0  0  0  0  0
   -2.3063    2.1638   11.2329 C   0  0  0  0  0  0
   -2.0652    3.4572   10.7038 C   0  0  0  0  0  0
   -2.7177    3.9447    9.5916 O   0  0  0  0  0  0
   -4.0074    3.4236    9.3001 C   0  0  0  0  0  0
    0.0394    7.3729   10.8538 H   0  0  0  0  0  0
   -0.3872    6.6910   12.4176 H   0  0  0  0  0  0
    0.9884    6.0427   11.4986 H   0  0  0  0  0  0
    0.2701    4.4714   13.0033 H   0  0  0  0  0  0
   -0.1938    2.2912   13.9158 H   0  0  0  0  0  0
   -2.7187   -0.0502   12.4978 H   0  0  0  0  0  0
    1.1657   -2.5523   15.9410 H   0  0  0  0  0  0
   -1.0798   -3.9082   16.5107 H   0  0  0  0  0  0
   -3.6968   -3.5928   15.6572 H   0  0  0  0  0  0
    3.1752   -1.7427   16.0785 H   0  0  0  0  0  0
    5.4559   -0.8185   16.1223 H   0  0  0  0  0  0
    6.0830    1.0908   14.6763 H   0  0  0  0  0  0
    2.0904    1.1736   13.0937 H   0  0  0  0  0  0
    3.1014    1.9384   11.6598 H   0  0  0  0  0  0
    2.1546    2.8044    9.7962 H   0  0  0  0  0  0
    1.7177    4.7201    8.3113 H   0  0  0  0  0  0
    4.4294    7.1383   10.6176 H   0  0  0  0  0  0
    4.8757    5.2512   12.1218 H   0  0  0  0  0  0
    3.6485    9.7198    6.7027 H   0  0  0  0  0  0
    0.9192    9.1956    6.7658 H   0  0  0  0  0  0
    0.7250    7.1408    8.2963 H   0  0  0  0  0  0
   -3.0071    1.4990   10.7514 H   0  0  0  0  0  0
   -4.4735    4.0420    8.5327 H   0  0  0  0  0  0
   -3.9700    2.4048    8.9174 H   0  0  0  0  0  0
   -4.6518    3.4476   10.1795 H   0  0  0  0  0  0
  1  2  1  0  0  0
  1 41  1  0  0  0
  1 42  1  0  0  0
  1 43  1  0  0  0
  2  3  1  0  0  0
  3  4  2  0  0  0
  3 38  1  0  0  0
  4  5  1  0  0  0
  4 44  1  0  0  0
  5  6  2  0  0  0
  5 45  1  0  0  0
  6  7  1  0  0  0
  6 37  1  0  0  0
  7  8  1  0  0  0
  7 46  1  0  0  0
  8  9  2  0  0  0
  8 16  1  0  0  0
  9 10  1  0  0  0
 10 11  2  0  0  0
 10 17  1  0  0  0
 11 12  1  0  0  0
 11 47  1  0  0  0
 12 13  1  0  0  0
 12 16  1  0  0  0
 13 14  2  0  0  0
 13 48  1  0  0  0
 14 15  1  0  0  0
 14 49  1  0  0  0
 15 16  2  0  0  0
 17 18  2  0  0  0
 17 22  1  0  0  0
 18 19  1  0  0  0
 18 50  1  0  0  0
 19 20  2  0  0  0
 19 51  1  0  0  0
 20 21  1  0  0  0
 20 52  1  0  0  0
 21 22  2  0  0  0
 21 23  1  0  0  0
 22 53  1  0  0  0
 23 24  2  0  0  0
 23 25  1  0  0  0
 25 26  1  0  0  0
 25 54  1  0  0  0
 26 27  2  0  0  0
 26 31  1  0  0  0
 27 28  1  0  0  0
 27 55  1  0  0  0
 28 29  2  0  0  0
 28 56  1  0  0  0
 29 30  1  0  0  0
 29 32  1  0  0  0
 30 31  2  0  0  0
 30 57  1  0  0  0
 31 58  1  0  0  0
 32 33  2  0  0  0
 32 36  1  0  0  0
 33 34  1  0  0  0
 34 35  2  0  0  0
 34 59  1  0  0  0
 35 36  1  0  0  0
 35 60  1  0  0  0
 36 61  1  0  0  0
 37 38  2  0  0  0
 37 62  1  0  0  0
 38 39  1  0  0  0
 39 40  1  0  0  0
 40 63  1  0  0  0
 40 64  1  0  0  0
 40 65  1  0  0  0
M  END
> <s_m_entry_id>
723

> <IC50[nM]>
16.5

> <s_m_Source_Path>
/projects/mai/users/kmzp800_harry/pmx_colab/docking_jobs/syk

> <s_m_Source_File>
tnks2_lig.sdf

> <i_m_Source_File_Index>
44

> <s_m_job_name>
glide-dock_SP_tnks2_no_const

> <r_i_docking_score>
-6.58732780495165

> <r_i_glide_gscore>
-6.58732780495165

> <r_i_glide_emodel>
-77.0505017478746

$$$$
