CHEMBL3265037
                    3D
 Schrodinger Suite 2021-4.
 56 61  0  0  1  0            999 V2000
   -2.1736    0.6985   12.3807 C   0  0  0  0  0  0
   -2.7322   -0.3204   13.1978 O   0  0  0  0  0  0
   -1.9265   -1.0626   14.0337 C   0  0  0  0  0  0
   -0.5403   -0.8173   14.1732 C   0  0  0  0  0  0
    0.2487   -1.5675   15.0711 C   0  0  0  0  0  0
    1.6154   -1.3436   15.2969 N   0  0  0  0  0  0
    2.5289   -0.4343   14.7276 C   0  0  0  0  0  0
    2.1933    0.3729   13.7570 N   0  0  0  0  0  0
    3.1209    1.2519   13.2342 C   0  0  0  0  0  0
    4.4220    1.2857   13.6831 C   0  0  0  0  0  0
    4.7565    0.4872   14.7267 N   0  0  0  0  0  0
    5.9049    0.3846   15.4812 C   0  0  0  0  0  0
    5.6130   -0.4971   16.4935 C   0  0  0  0  0  0
    4.3657   -1.0589   16.3285 N   0  0  0  0  0  0
    3.8308   -0.4142   15.2969 C   0  0  0  0  0  0
    2.6484    2.1650   12.1618 C   0  0  0  0  0  0
    3.5551    2.6727   11.1905 C   0  0  0  0  0  0
    3.1440    3.5000   10.1307 C   0  0  0  0  0  0
    1.7867    3.8626   10.0269 C   0  0  0  0  0  0
    0.9822    4.6325    9.1347 C   0  0  0  0  0  0
   -0.2732    4.6479    9.5152 N   0  0  0  0  0  0
   -0.3325    3.9082   10.6482 N   0  0  0  0  0  0
    0.8870    3.3849   11.0250 C   0  0  0  0  0  0
    1.2921    2.5495   12.0775 C   0  0  0  0  0  0
   -0.3657   -2.5881   15.8173 C   0  0  0  0  0  0
   -1.7398   -2.8314   15.7049 C   0  0  0  0  0  0
   -2.5330   -2.0788   14.8167 C   0  0  0  0  0  0
   -3.9135   -2.3364   14.7421 N   0  0  0  0  0  0
   -4.6386   -2.4033   13.4779 C   0  0  0  0  0  0
   -5.3719   -3.7537   13.3659 C   0  0  0  0  0  0
   -6.2007   -3.9674   14.5070 O   0  0  0  0  0  0
   -5.4474   -4.0157   15.7160 C   0  0  0  0  0  0
   -4.7018   -2.6897   15.9210 C   0  0  0  0  0  0
   -2.9718    1.1429   11.7831 H   0  0  0  0  0  0
   -1.7310    1.4948   12.9793 H   0  0  0  0  0  0
   -1.4307    0.2999   11.6897 H   0  0  0  0  0  0
   -0.0889   -0.0319   13.5992 H   0  0  0  0  0  0
    2.0117   -1.8737   16.0673 H   0  0  0  0  0  0
    5.1914    1.9427   13.2964 H   0  0  0  0  0  0
    6.7688    0.9855   15.2391 H   0  0  0  0  0  0
    6.1871   -0.7681   17.3544 H   0  0  0  0  0  0
    4.5965    2.4049   11.2352 H   0  0  0  0  0  0
    3.8682    3.8454    9.4026 H   0  0  0  0  0  0
    1.2785    5.1634    8.2412 H   0  0  0  0  0  0
   -1.2132    3.7900   11.1278 H   0  0  0  0  0  0
    0.5783    2.1893   12.8062 H   0  0  0  0  0  0
    0.2079   -3.1960   16.4989 H   0  0  0  0  0  0
   -2.1690   -3.6132   16.3121 H   0  0  0  0  0  0
   -3.9561   -2.2815   12.6396 H   0  0  0  0  0  0
   -5.3658   -1.6001   13.4172 H   0  0  0  0  0  0
   -5.9881   -3.7793   12.4664 H   0  0  0  0  0  0
   -4.6547   -4.5688   13.2814 H   0  0  0  0  0  0
   -6.1186   -4.1927   16.5587 H   0  0  0  0  0  0
   -4.7471   -4.8485   15.6882 H   0  0  0  0  0  0
   -5.4383   -1.9133   16.1268 H   0  0  0  0  0  0
   -4.0689   -2.7671   16.7985 H   0  0  0  0  0  0
  1  2  1  0  0  0
  1 34  1  0  0  0
  1 35  1  0  0  0
  1 36  1  0  0  0
  2  3  1  0  0  0
  3  4  2  0  0  0
  3 27  1  0  0  0
  4  5  1  0  0  0
  4 37  1  0  0  0
  5  6  1  0  0  0
  5 25  2  0  0  0
  6  7  1  0  0  0
  6 38  1  0  0  0
  7  8  2  0  0  0
  7 15  1  0  0  0
  8  9  1  0  0  0
  9 10  2  0  0  0
  9 16  1  0  0  0
 10 11  1  0  0  0
 10 39  1  0  0  0
 11 12  1  0  0  0
 11 15  1  0  0  0
 12 13  2  0  0  0
 12 40  1  0  0  0
 13 14  1  0  0  0
 13 41  1  0  0  0
 14 15  2  0  0  0
 16 17  2  0  0  0
 16 24  1  0  0  0
 17 18  1  0  0  0
 17 42  1  0  0  0
 18 19  2  0  0  0
 18 43  1  0  0  0
 19 20  1  0  0  0
 19 23  1  0  0  0
 20 21  2  0  0  0
 20 44  1  0  0  0
 21 22  1  0  0  0
 22 23  1  0  0  0
 22 45  1  0  0  0
 23 24  2  0  0  0
 24 46  1  0  0  0
 25 26  1  0  0  0
 25 47  1  0  0  0
 26 27  2  0  0  0
 26 48  1  0  0  0
 27 28  1  0  0  0
 28 29  1  0  0  0
 28 33  1  0  0  0
 29 30  1  0  0  0
 29 49  1  0  0  0
 29 50  1  0  0  0
 30 31  1  0  0  0
 30 51  1  0  0  0
 30 52  1  0  0  0
 31 32  1  0  0  0
 32 33  1  0  0  0
 32 53  1  0  0  0
 32 54  1  0  0  0
 33 55  1  0  0  0
 33 56  1  0  0  0
M  END
> <s_m_entry_id>
1115

> <IC50[nM]>
0.44

> <s_m_Source_Path>
/projects/mai/users/kmzp800_harry/pmx_colab/docking_jobs/syk

> <s_m_Source_File>
tnks2_lig.sdf

> <i_m_Source_File_Index>
1

> <s_m_job_name>
glide-dock_SP_syk_mcs

> <r_i_docking_score>
-6.62761894994274

> <r_i_glide_gscore>
-6.62761894994274

> <r_i_glide_emodel>
-53.1370623298578

$$$$
CHEMBL3259820
                    3D
 Schrodinger Suite 2021-4.
 48 51  0  0  1  0            999 V2000
   -4.5591   -3.1559   15.5350 C   0  0  0  0  0  0
   -3.9059   -2.2228   14.6836 O   0  0  0  0  0  0
   -2.5419   -2.0604   14.8224 C   0  0  0  0  0  0
   -1.7475   -2.8288   15.7070 C   0  0  0  0  0  0
   -0.3689   -2.5859   15.8176 C   0  0  0  0  0  0
    0.2481   -1.5684   15.0675 C   0  0  0  0  0  0
    1.6157   -1.3424   15.2922 N   0  0  0  0  0  0
    2.5283   -0.4308   14.7280 C   0  0  0  0  0  0
    2.1836    0.3960   13.7731 N   0  0  0  0  0  0
    3.1216    1.2594   13.2405 C   0  0  0  0  0  0
    4.4276    1.2872   13.6792 C   0  0  0  0  0  0
    4.7646    0.4827   14.7158 N   0  0  0  0  0  0
    5.9130    0.3753   15.4757 C   0  0  0  0  0  0
    5.6132   -0.4999   16.4881 C   0  0  0  0  0  0
    4.3639   -1.0602   16.3193 N   0  0  0  0  0  0
    3.8341   -0.4160   15.2879 C   0  0  0  0  0  0
    2.6526    2.1630   12.1601 C   0  0  0  0  0  0
    1.2960    2.5506   12.0713 C   0  0  0  0  0  0
    0.8778    3.3895   11.0194 C   0  0  0  0  0  0
    1.7930    3.8540   10.0463 C   0  0  0  0  0  0
    3.1469    3.4849   10.1353 C   0  0  0  0  0  0
    3.5627    2.6541   11.1884 C   0  0  0  0  0  0
    1.3123    4.7900    8.9915 C   0  0  0  0  0  0
    0.2613    4.5860    8.3874 O   0  0  0  0  0  0
    2.0660    5.8723    8.7929 N   0  0  0  0  0  0
   -0.5406   -0.8228   14.1670 C   0  0  0  0  0  0
   -1.9279   -1.0579   14.0393 C   0  0  0  0  0  0
   -2.7390   -0.3193   13.2014 O   0  0  0  0  0  0
   -2.1636    0.6740   12.3622 C   0  0  0  0  0  0
   -5.6315   -3.1498   15.3347 H   0  0  0  0  0  0
   -4.2014   -4.1720   15.3601 H   0  0  0  0  0  0
   -4.4194   -2.8948   16.5851 H   0  0  0  0  0  0
   -2.1701   -3.6026   16.3313 H   0  0  0  0  0  0
    0.2103   -3.1835   16.5059 H   0  0  0  0  0  0
    2.0224   -1.8915   16.0399 H   0  0  0  0  0  0
    5.1916    1.9598   13.3079 H   0  0  0  0  0  0
    6.7796    0.9808   15.2499 H   0  0  0  0  0  0
    6.1546   -0.7819   17.3683 H   0  0  0  0  0  0
    0.5841    2.2030   12.8065 H   0  0  0  0  0  0
   -0.1565    3.6911   10.9702 H   0  0  0  0  0  0
    3.8719    3.8316    9.4110 H   0  0  0  0  0  0
    4.6028    2.3682   11.2206 H   0  0  0  0  0  0
    1.7789    6.5540    8.1085 H   0  0  0  0  0  0
    2.8856    6.0231    9.3629 H   0  0  0  0  0  0
   -0.0955   -0.0480   13.5767 H   0  0  0  0  0  0
   -2.9467    1.1317   11.7550 H   0  0  0  0  0  0
   -1.6983    1.4689   12.9467 H   0  0  0  0  0  0
   -1.4308    0.2415   11.6782 H   0  0  0  0  0  0
  1  2  1  0  0  0
  1 30  1  0  0  0
  1 31  1  0  0  0
  1 32  1  0  0  0
  2  3  1  0  0  0
  3  4  2  0  0  0
  3 27  1  0  0  0
  4  5  1  0  0  0
  4 33  1  0  0  0
  5  6  2  0  0  0
  5 34  1  0  0  0
  6  7  1  0  0  0
  6 26  1  0  0  0
  7  8  1  0  0  0
  7 35  1  0  0  0
  8  9  2  0  0  0
  8 16  1  0  0  0
  9 10  1  0  0  0
 10 11  2  0  0  0
 10 17  1  0  0  0
 11 12  1  0  0  0
 11 36  1  0  0  0
 12 13  1  0  0  0
 12 16  1  0  0  0
 13 14  2  0  0  0
 13 37  1  0  0  0
 14 15  1  0  0  0
 14 38  1  0  0  0
 15 16  2  0  0  0
 17 18  2  0  0  0
 17 22  1  0  0  0
 18 19  1  0  0  0
 18 39  1  0  0  0
 19 20  2  0  0  0
 19 40  1  0  0  0
 20 21  1  0  0  0
 20 23  1  0  0  0
 21 22  2  0  0  0
 21 41  1  0  0  0
 22 42  1  0  0  0
 23 24  2  0  0  0
 23 25  1  0  0  0
 25 43  1  0  0  0
 25 44  1  0  0  0
 26 27  2  0  0  0
 26 45  1  0  0  0
 27 28  1  0  0  0
 28 29  1  0  0  0
 29 46  1  0  0  0
 29 47  1  0  0  0
 29 48  1  0  0  0
M  END
> <s_m_entry_id>
1104

> <IC50[nM]>
17.7

> <s_m_Source_Path>
/projects/mai/users/kmzp800_harry/pmx_colab/docking_jobs/syk

> <s_m_Source_File>
tnks2_lig.sdf

> <i_m_Source_File_Index>
2

> <s_m_job_name>
glide-dock_SP_syk_mcs

> <r_i_docking_score>
-6.78564481110369

> <r_i_glide_gscore>
-6.78564481110369

> <r_i_glide_emodel>
-47.0588902502795

$$$$
CHEMBL3265021
                    3D
 Schrodinger Suite 2021-4.
 47 51  0  0  1  0            999 V2000
   -4.5307   -3.2297   15.4812 C   0  0  0  0  0  0
   -3.8890   -2.2614   14.6625 O   0  0  0  0  0  0
   -2.5332   -2.0718   14.8156 C   0  0  0  0  0  0
   -1.7419   -2.8315   15.7057 C   0  0  0  0  0  0
   -0.3679   -2.5855   15.8175 C   0  0  0  0  0  0
    0.2460   -1.5640   15.0731 C   0  0  0  0  0  0
    1.6124   -1.3429   15.2998 N   0  0  0  0  0  0
    2.5289   -0.4365   14.7422 C   0  0  0  0  0  0
    2.1956    0.3698   13.7552 N   0  0  0  0  0  0
    3.1226    1.2495   13.2306 C   0  0  0  0  0  0
    4.4218    1.2855   13.6823 C   0  0  0  0  0  0
    4.7558    0.4854   14.7277 N   0  0  0  0  0  0
    5.9059    0.3839   15.4826 C   0  0  0  0  0  0
    5.6093   -0.4969   16.4941 C   0  0  0  0  0  0
    4.3625   -1.0603   16.3307 N   0  0  0  0  0  0
    3.8294   -0.4188   15.2945 C   0  0  0  0  0  0
    2.6542    2.1642   12.1586 C   0  0  0  0  0  0
    3.5647    2.6679   11.1886 C   0  0  0  0  0  0
    3.1557    3.4942   10.1293 C   0  0  0  0  0  0
    1.8036    3.8396   10.0498 C   0  0  0  0  0  0
    1.0583    4.5967    9.1643 N   0  0  0  0  0  0
   -0.2601    4.6533    9.4966 N   0  0  0  0  0  0
   -0.3864    3.9522   10.6041 C   0  0  0  0  0  0
    0.8585    3.3868   11.0169 C   0  0  0  0  0  0
    1.2958    2.5501   12.0730 C   0  0  0  0  0  0
   -0.5411   -0.8113   14.1770 C   0  0  0  0  0  0
   -1.9264   -1.0563   14.0400 C   0  0  0  0  0  0
   -2.7391   -0.3270   13.1977 O   0  0  0  0  0  0
   -2.1810    0.7037   12.3896 C   0  0  0  0  0  0
   -5.5923   -3.2541   15.2368 H   0  0  0  0  0  0
   -4.4411   -2.9807   16.5398 H   0  0  0  0  0  0
   -4.1308   -4.2300   15.3095 H   0  0  0  0  0  0
   -2.1619   -3.6064   16.3246 H   0  0  0  0  0  0
    0.2123   -3.1841   16.5006 H   0  0  0  0  0  0
    2.0062   -1.8633   16.0790 H   0  0  0  0  0  0
    5.1939    1.9439   13.3046 H   0  0  0  0  0  0
    6.7706    0.9815   15.2370 H   0  0  0  0  0  0
    6.1709   -0.7653   17.3591 H   0  0  0  0  0  0
    4.6043    2.3960   11.2342 H   0  0  0  0  0  0
    3.8724    3.8419    9.4000 H   0  0  0  0  0  0
    1.4135    5.0809    8.3461 H   0  0  0  0  0  0
   -1.3466    3.8488   11.0958 H   0  0  0  0  0  0
    0.5945    2.1937   12.8191 H   0  0  0  0  0  0
   -0.0837   -0.0355   13.5963 H   0  0  0  0  0  0
   -2.9823    1.1791   11.8202 H   0  0  0  0  0  0
   -1.7057    1.4793   12.9909 H   0  0  0  0  0  0
   -1.4624    0.3066   11.6719 H   0  0  0  0  0  0
  1  2  1  0  0  0
  1 30  1  0  0  0
  1 31  1  0  0  0
  1 32  1  0  0  0
  2  3  1  0  0  0
  3  4  2  0  0  0
  3 27  1  0  0  0
  4  5  1  0  0  0
  4 33  1  0  0  0
  5  6  2  0  0  0
  5 34  1  0  0  0
  6  7  1  0  0  0
  6 26  1  0  0  0
  7  8  1  0  0  0
  7 35  1  0  0  0
  8  9  2  0  0  0
  8 16  1  0  0  0
  9 10  1  0  0  0
 10 11  2  0  0  0
 10 17  1  0  0  0
 11 12  1  0  0  0
 11 36  1  0  0  0
 12 13  1  0  0  0
 12 16  1  0  0  0
 13 14  2  0  0  0
 13 37  1  0  0  0
 14 15  1  0  0  0
 14 38  1  0  0  0
 15 16  2  0  0  0
 17 18  2  0  0  0
 17 25  1  0  0  0
 18 19  1  0  0  0
 18 39  1  0  0  0
 19 20  2  0  0  0
 19 40  1  0  0  0
 20 21  1  0  0  0
 20 24  1  0  0  0
 21 22  1  0  0  0
 21 41  1  0  0  0
 22 23  2  0  0  0
 23 24  1  0  0  0
 23 42  1  0  0  0
 24 25  2  0  0  0
 25 43  1  0  0  0
 26 27  2  0  0  0
 26 44  1  0  0  0
 27 28  1  0  0  0
 28 29  1  0  0  0
 29 45  1  0  0  0
 29 46  1  0  0  0
 29 47  1  0  0  0
M  END
> <s_m_entry_id>
1111

> <IC50[nM]>
10.4

> <s_m_Source_Path>
/projects/mai/users/kmzp800_harry/pmx_colab/docking_jobs/syk

> <s_m_Source_File>
tnks2_lig.sdf

> <i_m_Source_File_Index>
3

> <s_m_job_name>
glide-dock_SP_syk_mcs

> <r_i_docking_score>
-6.67544918274516

> <r_i_glide_gscore>
-6.67544918274516

> <r_i_glide_emodel>
-46.4306838963644

$$$$
CHEMBL3265016
                    3D
 Schrodinger Suite 2021-4.
 48 52  0  0  1  0            999 V2000
   -4.5239   -3.2312   15.4883 C   0  0  0  0  0  0
   -3.8826   -2.2617   14.6705 O   0  0  0  0  0  0
   -2.5278   -2.0720   14.8215 C   0  0  0  0  0  0
   -1.7357   -2.8313   15.7097 C   0  0  0  0  0  0
   -0.3625   -2.5881   15.8173 C   0  0  0  0  0  0
    0.2493   -1.5641   15.0752 C   0  0  0  0  0  0
    1.6196   -1.3517   15.2923 N   0  0  0  0  0  0
    2.5283   -0.4276   14.7285 C   0  0  0  0  0  0
    2.1905    0.3792   13.7601 N   0  0  0  0  0  0
    3.1187    1.2563   13.2278 C   0  0  0  0  0  0
    4.4196    1.2882   13.6812 C   0  0  0  0  0  0
    4.7549    0.4936   14.7267 N   0  0  0  0  0  0
    5.9073    0.3816   15.4805 C   0  0  0  0  0  0
    5.6192   -0.5029   16.4873 C   0  0  0  0  0  0
    4.3672   -1.0587   16.3273 N   0  0  0  0  0  0
    3.8337   -0.4120   15.2991 C   0  0  0  0  0  0
    2.6484    2.1674   12.1542 C   0  0  0  0  0  0
    3.5604    2.6682   11.1850 C   0  0  0  0  0  0
    3.1537    3.4944   10.1269 C   0  0  0  0  0  0
    1.7977    3.8639   10.0209 C   0  0  0  0  0  0
    1.0363    4.6516    9.1011 C   0  0  0  0  0  0
   -0.2608    4.6317    9.5319 C   0  0  0  0  0  0
   -0.3384    3.8915   10.6782 N   0  0  0  0  0  0
    0.8918    3.3865   11.0174 C   0  0  0  0  0  0
    1.2941    2.5530   12.0692 C   0  0  0  0  0  0
   -0.5391   -0.8075   14.1838 C   0  0  0  0  0  0
   -1.9224   -1.0568   14.0454 C   0  0  0  0  0  0
   -2.7378   -0.3220   13.2066 O   0  0  0  0  0  0
   -2.1799    0.7039   12.3920 C   0  0  0  0  0  0
   -5.5849   -3.2594   15.2414 H   0  0  0  0  0  0
   -4.4383   -2.9806   16.5470 H   0  0  0  0  0  0
   -4.1209   -4.2309   15.3194 H   0  0  0  0  0  0
   -2.1554   -3.6071   16.3248 H   0  0  0  0  0  0
    0.2203   -3.1960   16.4888 H   0  0  0  0  0  0
    2.0660   -2.0206   15.9120 H   0  0  0  0  0  0
    5.1965    1.9335   13.2879 H   0  0  0  0  0  0
    6.7765    0.9741   15.2266 H   0  0  0  0  0  0
    6.1851   -0.7763   17.3400 H   0  0  0  0  0  0
    4.6008    2.3981   11.2354 H   0  0  0  0  0  0
    3.8854    3.8326    9.4050 H   0  0  0  0  0  0
    1.4150    5.1606    8.2322 H   0  0  0  0  0  0
   -1.1518    5.0775    9.1345 H   0  0  0  0  0  0
   -1.2000    3.7655   11.1726 H   0  0  0  0  0  0
    0.5795    2.1864   12.7970 H   0  0  0  0  0  0
   -0.0814   -0.0216   13.6145 H   0  0  0  0  0  0
   -2.9685    1.1161   11.7595 H   0  0  0  0  0  0
   -1.7830    1.5218   12.9937 H   0  0  0  0  0  0
   -1.3997    0.3230   11.7331 H   0  0  0  0  0  0
  1  2  1  0  0  0
  1 30  1  0  0  0
  1 31  1  0  0  0
  1 32  1  0  0  0
  2  3  1  0  0  0
  3  4  2  0  0  0
  3 27  1  0  0  0
  4  5  1  0  0  0
  4 33  1  0  0  0
  5  6  2  0  0  0
  5 34  1  0  0  0
  6  7  1  0  0  0
  6 26  1  0  0  0
  7  8  1  0  0  0
  7 35  1  0  0  0
  8  9  2  0  0  0
  8 16  1  0  0  0
  9 10  1  0  0  0
 10 11  2  0  0  0
 10 17  1  0  0  0
 11 12  1  0  0  0
 11 36  1  0  0  0
 12 13  1  0  0  0
 12 16  1  0  0  0
 13 14  2  0  0  0
 13 37  1  0  0  0
 14 15  1  0  0  0
 14 38  1  0  0  0
 15 16  2  0  0  0
 17 18  2  0  0  0
 17 25  1  0  0  0
 18 19  1  0  0  0
 18 39  1  0  0  0
 19 20  2  0  0  0
 19 40  1  0  0  0
 20 21  1  0  0  0
 20 24  1  0  0  0
 21 22  2  0  0  0
 21 41  1  0  0  0
 22 23  1  0  0  0
 22 42  1  0  0  0
 23 24  1  0  0  0
 23 43  1  0  0  0
 24 25  2  0  0  0
 25 44  1  0  0  0
 26 27  2  0  0  0
 26 45  1  0  0  0
 27 28  1  0  0  0
 28 29  1  0  0  0
 29 46  1  0  0  0
 29 47  1  0  0  0
 29 48  1  0  0  0
M  END
> <s_m_entry_id>
1096

> <IC50[nM]>
2.7

> <s_m_Source_Path>
/projects/mai/users/kmzp800_harry/pmx_colab/docking_jobs/syk

> <s_m_Source_File>
tnks2_lig.sdf

> <i_m_Source_File_Index>
4

> <s_m_job_name>
glide-dock_SP_syk_mcs

> <r_i_docking_score>
-6.89275684406306

> <r_i_glide_gscore>
-6.89275684406306

> <r_i_glide_emodel>
-46.2163077952497

$$$$
CHEMBL3265028
                    3D
 Schrodinger Suite 2021-4.
 43 47  0  0  1  0            999 V2000
   -2.1848    0.6985   12.3893 C   0  0  0  0  0  0
   -2.7453   -0.3307   13.2007 O   0  0  0  0  0  0
   -1.9276   -1.0607   14.0387 C   0  0  0  0  0  0
   -2.5220   -2.0777   14.8149 C   0  0  0  0  0  0
   -1.7448   -2.8370   15.7042 C   0  0  0  0  0  0
   -0.3693   -2.5934   15.8175 C   0  0  0  0  0  0
    0.2434   -1.5699   15.0734 C   0  0  0  0  0  0
    1.6142   -1.3578   15.2893 N   0  0  0  0  0  0
    2.5247   -0.4395   14.7280 C   0  0  0  0  0  0
    2.1870    0.3715   13.7581 N   0  0  0  0  0  0
    3.1154    1.2489   13.2303 C   0  0  0  0  0  0
    4.4163    1.2828   13.6814 C   0  0  0  0  0  0
    4.7514    0.4853   14.7277 N   0  0  0  0  0  0
    5.9037    0.3787   15.4805 C   0  0  0  0  0  0
    5.6140   -0.4999   16.4889 C   0  0  0  0  0  0
    4.3657   -1.0628   16.3285 N   0  0  0  0  0  0
    3.8286   -0.4176   15.2958 C   0  0  0  0  0  0
    2.6471    2.1615   12.1568 C   0  0  0  0  0  0
    3.5594    2.6608   11.1870 C   0  0  0  0  0  0
    3.1560    3.4892   10.1271 C   0  0  0  0  0  0
    1.8013    3.8598   10.0226 C   0  0  0  0  0  0
    1.0022    4.6368    9.1330 C   0  0  0  0  0  0
   -0.2540    4.6567    9.5118 N   0  0  0  0  0  0
   -0.3205    3.9158   10.6420 N   0  0  0  0  0  0
    0.8944    3.3857   11.0174 C   0  0  0  0  0  0
    1.2930    2.5506   12.0711 C   0  0  0  0  0  0
   -0.5446   -0.8116   14.1792 C   0  0  0  0  0  0
   -2.9728    1.1192   11.7627 H   0  0  0  0  0  0
   -1.7800    1.5113   12.9928 H   0  0  0  0  0  0
   -1.4092    0.3180   11.7245 H   0  0  0  0  0  0
   -3.5800   -2.2729   14.7350 H   0  0  0  0  0  0
   -2.1952   -3.6070   16.3072 H   0  0  0  0  0  0
    0.2136   -3.1981   16.4921 H   0  0  0  0  0  0
    2.0580   -2.0263   15.9138 H   0  0  0  0  0  0
    5.1927    1.9291   13.2921 H   0  0  0  0  0  0
    6.7713    0.9741   15.2297 H   0  0  0  0  0  0
    6.1748   -0.7768   17.3455 H   0  0  0  0  0  0
    4.5989    2.3864   11.2364 H   0  0  0  0  0  0
    3.8865    3.8276    9.4041 H   0  0  0  0  0  0
    1.3033    5.1714    8.2422 H   0  0  0  0  0  0
   -1.2033    3.8051   11.1197 H   0  0  0  0  0  0
    0.5754    2.1880   12.7971 H   0  0  0  0  0  0
   -0.0990   -0.0235   13.6031 H   0  0  0  0  0  0
  1  2  1  0  0  0
  1 28  1  0  0  0
  1 29  1  0  0  0
  1 30  1  0  0  0
  2  3  1  0  0  0
  3  4  2  0  0  0
  3 27  1  0  0  0
  4  5  1  0  0  0
  4 31  1  0  0  0
  5  6  2  0  0  0
  5 32  1  0  0  0
  6  7  1  0  0  0
  6 33  1  0  0  0
  7  8  1  0  0  0
  7 27  2  0  0  0
  8  9  1  0  0  0
  8 34  1  0  0  0
  9 10  2  0  0  0
  9 17  1  0  0  0
 10 11  1  0  0  0
 11 12  2  0  0  0
 11 18  1  0  0  0
 12 13  1  0  0  0
 12 35  1  0  0  0
 13 14  1  0  0  0
 13 17  1  0  0  0
 14 15  2  0  0  0
 14 36  1  0  0  0
 15 16  1  0  0  0
 15 37  1  0  0  0
 16 17  2  0  0  0
 18 19  2  0  0  0
 18 26  1  0  0  0
 19 20  1  0  0  0
 19 38  1  0  0  0
 20 21  2  0  0  0
 20 39  1  0  0  0
 21 22  1  0  0  0
 21 25  1  0  0  0
 22 23  2  0  0  0
 22 40  1  0  0  0
 23 24  1  0  0  0
 24 25  1  0  0  0
 24 41  1  0  0  0
 25 26  2  0  0  0
 26 42  1  0  0  0
 27 43  1  0  0  0
M  END
> <s_m_entry_id>
1102

> <IC50[nM]>
8.5

> <s_m_Source_Path>
/projects/mai/users/kmzp800_harry/pmx_colab/docking_jobs/syk

> <s_m_Source_File>
tnks2_lig.sdf

> <i_m_Source_File_Index>
5

> <s_m_job_name>
glide-dock_SP_syk_mcs

> <r_i_docking_score>
-6.8195373238496

> <r_i_glide_gscore>
-6.8195373238496

> <r_i_glide_emodel>
-45.8135213263267

$$$$
CHEMBL3265012
                    3D
 Schrodinger Suite 2021-4.
 48 51  0  0  1  0            999 V2000
   -4.5574   -3.1606   15.5459 C   0  0  0  0  0  0
   -3.9090   -2.2251   14.6958 O   0  0  0  0  0  0
   -2.5465   -2.0627   14.8314 C   0  0  0  0  0  0
   -1.7476   -2.8344   15.7086 C   0  0  0  0  0  0
   -0.3684   -2.5945   15.8165 C   0  0  0  0  0  0
    0.2457   -1.5727   15.0663 C   0  0  0  0  0  0
    1.6169   -1.3552   15.2866 N   0  0  0  0  0  0
    2.5357   -0.4391   14.7277 C   0  0  0  0  0  0
    2.1995    0.3699   13.7589 N   0  0  0  0  0  0
    3.1288    1.2516   13.2380 C   0  0  0  0  0  0
    4.4335    1.2888   13.6838 C   0  0  0  0  0  0
    4.7706    0.4833   14.7195 N   0  0  0  0  0  0
    5.9165    0.3836   15.4867 C   0  0  0  0  0  0
    5.6159   -0.4963   16.4986 C   0  0  0  0  0  0
    4.3727   -1.0651   16.3174 N   0  0  0  0  0  0
    3.8431   -0.4162   15.2882 C   0  0  0  0  0  0
    2.6490    2.1607   12.1634 C   0  0  0  0  0  0
    1.2946    2.5518   12.0716 C   0  0  0  0  0  0
    0.8661    3.3814   11.0192 C   0  0  0  0  0  0
    1.7798    3.8440   10.0462 C   0  0  0  0  0  0
    1.2754    4.7525    8.9746 C   0  0  0  0  0  0
    0.2304    4.5092    8.3776 O   0  0  0  0  0  0
    1.9898    5.8580    8.7550 N   0  0  0  0  0  0
    3.1342    3.4836   10.1420 C   0  0  0  0  0  0
    4.0299    3.9272    9.2335 F   0  0  0  0  0  0
    3.5588    2.6584   11.1954 C   0  0  0  0  0  0
   -0.5483   -0.8195   14.1741 C   0  0  0  0  0  0
   -1.9357   -1.0578   14.0482 C   0  0  0  0  0  0
   -2.7455   -0.3306   13.2012 O   0  0  0  0  0  0
   -2.1606    0.6629   12.3690 C   0  0  0  0  0  0
   -5.6272   -3.1557   15.3373 H   0  0  0  0  0  0
   -4.1948   -4.1756   15.3764 H   0  0  0  0  0  0
   -4.4255   -2.9026   16.5977 H   0  0  0  0  0  0
   -2.1694   -3.6090   16.3273 H   0  0  0  0  0  0
    0.2122   -3.1942   16.5043 H   0  0  0  0  0  0
    2.0348   -1.9508   15.9910 H   0  0  0  0  0  0
    5.1951    1.9719   13.3223 H   0  0  0  0  0  0
    6.7804    1.0009   15.2694 H   0  0  0  0  0  0
    6.1453   -0.7738   17.3757 H   0  0  0  0  0  0
    0.5812    2.2057   12.8032 H   0  0  0  0  0  0
   -0.1744    3.6659   10.9573 H   0  0  0  0  0  0
    1.6874    6.5214    8.0556 H   0  0  0  0  0  0
    2.8289    6.0235    9.2910 H   0  0  0  0  0  0
    4.6002    2.3797   11.2300 H   0  0  0  0  0  0
   -0.1020   -0.0394   13.5868 H   0  0  0  0  0  0
   -2.9333    1.1024   11.7386 H   0  0  0  0  0  0
   -1.7225    1.4690   12.9583 H   0  0  0  0  0  0
   -1.4025    0.2387   11.7093 H   0  0  0  0  0  0
  1  2  1  0  0  0
  1 31  1  0  0  0
  1 32  1  0  0  0
  1 33  1  0  0  0
  2  3  1  0  0  0
  3  4  2  0  0  0
  3 28  1  0  0  0
  4  5  1  0  0  0
  4 34  1  0  0  0
  5  6  2  0  0  0
  5 35  1  0  0  0
  6  7  1  0  0  0
  6 27  1  0  0  0
  7  8  1  0  0  0
  7 36  1  0  0  0
  8  9  2  0  0  0
  8 16  1  0  0  0
  9 10  1  0  0  0
 10 11  2  0  0  0
 10 17  1  0  0  0
 11 12  1  0  0  0
 11 37  1  0  0  0
 12 13  1  0  0  0
 12 16  1  0  0  0
 13 14  2  0  0  0
 13 38  1  0  0  0
 14 15  1  0  0  0
 14 39  1  0  0  0
 15 16  2  0  0  0
 17 18  2  0  0  0
 17 26  1  0  0  0
 18 19  1  0  0  0
 18 40  1  0  0  0
 19 20  2  0  0  0
 19 41  1  0  0  0
 20 21  1  0  0  0
 20 24  1  0  0  0
 21 22  2  0  0  0
 21 23  1  0  0  0
 23 42  1  0  0  0
 23 43  1  0  0  0
 24 25  1  0  0  0
 24 26  2  0  0  0
 26 44  1  0  0  0
 27 28  2  0  0  0
 27 45  1  0  0  0
 28 29  1  0  0  0
 29 30  1  0  0  0
 30 46  1  0  0  0
 30 47  1  0  0  0
 30 48  1  0  0  0
M  END
> <s_m_entry_id>
1092

> <IC50[nM]>
18.6

> <s_m_Source_Path>
/projects/mai/users/kmzp800_harry/pmx_colab/docking_jobs/syk

> <s_m_Source_File>
tnks2_lig.sdf

> <i_m_Source_File_Index>
6

> <s_m_job_name>
glide-dock_SP_syk_mcs

> <r_i_docking_score>
-7.03226988217658

> <r_i_glide_gscore>
-7.03226988217658

> <r_i_glide_emodel>
-48.2636869312201

$$$$
CHEMBL3265004
                    3D
 Schrodinger Suite 2021-4.
 65 70  0  0  1  0            999 V2000
   -4.5543   -3.1319   15.5439 C   0  0  0  0  0  0
   -3.8969   -2.2246   14.6741 O   0  0  0  0  0  0
   -2.5384   -2.0566   14.8189 C   0  0  0  0  0  0
   -1.7438   -2.8253   15.6989 C   0  0  0  0  0  0
   -0.3686   -2.5746   15.8172 C   0  0  0  0  0  0
    0.2443   -1.5553   15.0686 C   0  0  0  0  0  0
    1.6084   -1.3266   15.3042 N   0  0  0  0  0  0
    2.5287   -0.4282   14.7284 C   0  0  0  0  0  0
    2.1980    0.3689   13.7480 N   0  0  0  0  0  0
    3.1299    1.2466   13.2278 C   0  0  0  0  0  0
    4.4317    1.2858   13.6794 C   0  0  0  0  0  0
    4.7694    0.4862   14.7208 N   0  0  0  0  0  0
    5.9186    0.3752   15.4808 C   0  0  0  0  0  0
    5.6176   -0.4996   16.4918 C   0  0  0  0  0  0
    4.3683   -1.0594   16.3171 N   0  0  0  0  0  0
    3.8366   -0.4120   15.2886 C   0  0  0  0  0  0
    2.6556    2.1594   12.1574 C   0  0  0  0  0  0
    3.5733    2.6610   11.1953 C   0  0  0  0  0  0
    3.1626    3.4902   10.1403 C   0  0  0  0  0  0
    1.8108    3.8485   10.0390 C   0  0  0  0  0  0
    0.8861    3.3979   11.0090 C   0  0  0  0  0  0
    1.2975    2.5510   12.0638 C   0  0  0  0  0  0
   -0.5422    3.8039   10.8931 C   0  0  0  0  0  0
   -1.2072    3.4571    9.9150 O   0  0  0  0  0  0
   -0.9831    4.5430   11.9292 N   0  0  0  0  0  0
   -2.2562    5.1404   12.1068 C   0  0  0  0  0  0
   -2.7024    5.4238   13.4151 C   0  0  0  0  0  0
   -3.9688    6.0040   13.6256 C   0  0  0  0  0  0
   -4.7931    6.3693   12.5362 C   0  0  0  0  0  0
   -4.3200    6.1127   11.2308 C   0  0  0  0  0  0
   -3.0719    5.4995   11.0150 C   0  0  0  0  0  0
   -6.1032    7.0187   12.7333 C   0  0  0  0  0  0
   -6.6464    8.0837   11.9533 C   0  0  0  0  0  0
   -7.8408    8.4585   12.4024 N   0  0  0  0  0  0
   -8.0783    7.6259   13.4424 N   0  0  0  0  0  0
   -7.0520    6.7332   13.6729 C   0  0  0  0  0  0
   -0.5426   -0.8167   14.1629 C   0  0  0  0  0  0
   -1.9279   -1.0551   14.0314 C   0  0  0  0  0  0
   -2.7399   -0.3169   13.1947 O   0  0  0  0  0  0
   -2.1718    0.7206   12.3967 C   0  0  0  0  0  0
   -5.6245   -3.1047   15.3502 H   0  0  0  0  0  0
   -4.2259   -4.1630   15.3907 H   0  0  0  0  0  0
   -4.4071   -2.8545   16.5852 H   0  0  0  0  0  0
   -2.1648   -3.6004   16.3165 H   0  0  0  0  0  0
    0.2159   -3.1682   16.5052 H   0  0  0  0  0  0
    2.0048   -1.8414   16.0840 H   0  0  0  0  0  0
    5.1987    1.9545   13.3033 H   0  0  0  0  0  0
    6.7806    0.9819   15.2420 H   0  0  0  0  0  0
    6.1581   -0.7836   17.3677 H   0  0  0  0  0  0
    4.6146    2.3812   11.2386 H   0  0  0  0  0  0
    3.8847    3.8286    9.4112 H   0  0  0  0  0  0
    1.4933    4.4911    9.2292 H   0  0  0  0  0  0
    0.5884    2.1918   12.7985 H   0  0  0  0  0  0
   -0.3258    4.6907   12.6840 H   0  0  0  0  0  0
   -2.0801    5.2032   14.2746 H   0  0  0  0  0  0
   -4.2851    6.2087   14.6380 H   0  0  0  0  0  0
   -4.9151    6.3838   10.3709 H   0  0  0  0  0  0
   -2.7394    5.3331   10.0008 H   0  0  0  0  0  0
   -6.2099    8.5920   11.1008 H   0  0  0  0  0  0
   -8.9372    7.6640   13.9729 H   0  0  0  0  0  0
   -7.0856    6.0042   14.4720 H   0  0  0  0  0  0
   -0.0990   -0.0323   13.5864 H   0  0  0  0  0  0
   -2.9409    1.1980   11.7839 H   0  0  0  0  0  0
   -1.7273    1.4971   13.0132 H   0  0  0  0  0  0
   -1.4146    0.3313   11.7171 H   0  0  0  0  0  0
  1  2  1  0  0  0
  1 41  1  0  0  0
  1 42  1  0  0  0
  1 43  1  0  0  0
  2  3  1  0  0  0
  3  4  2  0  0  0
  3 38  1  0  0  0
  4  5  1  0  0  0
  4 44  1  0  0  0
  5  6  2  0  0  0
  5 45  1  0  0  0
  6  7  1  0  0  0
  6 37  1  0  0  0
  7  8  1  0  0  0
  7 46  1  0  0  0
  8  9  2  0  0  0
  8 16  1  0  0  0
  9 10  1  0  0  0
 10 11  2  0  0  0
 10 17  1  0  0  0
 11 12  1  0  0  0
 11 47  1  0  0  0
 12 13  1  0  0  0
 12 16  1  0  0  0
 13 14  2  0  0  0
 13 48  1  0  0  0
 14 15  1  0  0  0
 14 49  1  0  0  0
 15 16  2  0  0  0
 17 18  2  0  0  0
 17 22  1  0  0  0
 18 19  1  0  0  0
 18 50  1  0  0  0
 19 20  2  0  0  0
 19 51  1  0  0  0
 20 21  1  0  0  0
 20 52  1  0  0  0
 21 22  2  0  0  0
 21 23  1  0  0  0
 22 53  1  0  0  0
 23 24  2  0  0  0
 23 25  1  0  0  0
 25 26  1  0  0  0
 25 54  1  0  0  0
 26 27  2  0  0  0
 26 31  1  0  0  0
 27 28  1  0  0  0
 27 55  1  0  0  0
 28 29  2  0  0  0
 28 56  1  0  0  0
 29 30  1  0  0  0
 29 32  1  0  0  0
 30 31  2  0  0  0
 30 57  1  0  0  0
 31 58  1  0  0  0
 32 33  1  0  0  0
 32 36  2  0  0  0
 33 34  2  0  0  0
 33 59  1  0  0  0
 34 35  1  0  0  0
 35 36  1  0  0  0
 35 60  1  0  0  0
 36 61  1  0  0  0
 37 38  2  0  0  0
 37 62  1  0  0  0
 38 39  1  0  0  0
 39 40  1  0  0  0
 40 63  1  0  0  0
 40 64  1  0  0  0
 40 65  1  0  0  0
M  END
> <s_m_entry_id>
1090

> <IC50[nM]>
11

> <s_m_Source_Path>
/projects/mai/users/kmzp800_harry/pmx_colab/docking_jobs/syk

> <s_m_Source_File>
tnks2_lig.sdf

> <i_m_Source_File_Index>
7

> <s_m_job_name>
glide-dock_SP_syk_mcs

> <r_i_docking_score>
-7.27058596204064

> <r_i_glide_gscore>
-7.27058596204064

> <r_i_glide_emodel>
-64.9939709217502

$$$$
CHEMBL3265005
                    3D
 Schrodinger Suite 2021-4.
 48 51  0  0  1  0            999 V2000
   -4.5440   -3.1945   15.5517 C   0  0  0  0  0  0
   -3.8945   -2.2652   14.6939 O   0  0  0  0  0  0
   -2.5343   -2.0907   14.8290 C   0  0  0  0  0  0
   -1.7310   -2.8469   15.7134 C   0  0  0  0  0  0
   -0.3530   -2.5972   15.8174 C   0  0  0  0  0  0
    0.2502   -1.5770   15.0665 C   0  0  0  0  0  0
    1.6154   -1.3501   15.2871 N   0  0  0  0  0  0
    2.5243   -0.4325   14.7281 C   0  0  0  0  0  0
    2.1925    0.3677   13.7513 N   0  0  0  0  0  0
    3.1223    1.2457   13.2357 C   0  0  0  0  0  0
    4.4272    1.2777   13.6796 C   0  0  0  0  0  0
    4.7625    0.4720   14.7187 N   0  0  0  0  0  0
    5.9119    0.3685   15.4766 C   0  0  0  0  0  0
    5.6036   -0.4954   16.4934 C   0  0  0  0  0  0
    4.3550   -1.0542   16.3352 N   0  0  0  0  0  0
    3.8274   -0.4166   15.2939 C   0  0  0  0  0  0
    2.6481    2.1558   12.1635 C   0  0  0  0  0  0
    3.5654    2.6438   11.2000 C   0  0  0  0  0  0
    3.1551    3.4694   10.1443 C   0  0  0  0  0  0
    1.8068    3.8302   10.0404 C   0  0  0  0  0  0
    0.8723    3.3966   11.0086 C   0  0  0  0  0  0
    1.2936    2.5549   12.0613 C   0  0  0  0  0  0
   -0.5562    3.8462   10.9207 C   0  0  0  0  0  0
   -1.4762    3.1708   11.3537 O   0  0  0  0  0  0
   -0.7681    5.0433   10.3767 N   0  0  0  0  0  0
   -0.5490   -0.8377   14.1717 C   0  0  0  0  0  0
   -1.9335   -1.0820   14.0459 C   0  0  0  0  0  0
   -2.7471   -0.3627   13.1984 O   0  0  0  0  0  0
   -2.1767    0.6453   12.3950 C   0  0  0  0  0  0
   -5.6135   -3.2105   15.3451 H   0  0  0  0  0  0
   -4.1663   -4.2126   15.4055 H   0  0  0  0  0  0
   -4.4020   -2.9303   16.5966 H   0  0  0  0  0  0
   -2.1542   -3.6227   16.3306 H   0  0  0  0  0  0
    0.2428   -3.1880   16.5007 H   0  0  0  0  0  0
    2.0360   -1.9662   15.9742 H   0  0  0  0  0  0
    5.1936    1.9536   13.3183 H   0  0  0  0  0  0
    6.7761    0.9795   15.2573 H   0  0  0  0  0  0
    6.1425   -0.7384   17.3812 H   0  0  0  0  0  0
    4.6025    2.3542   11.2315 H   0  0  0  0  0  0
    3.8633    3.8110    9.4023 H   0  0  0  0  0  0
    1.5037    4.4560    9.2180 H   0  0  0  0  0  0
    0.5908    2.2179   12.8075 H   0  0  0  0  0  0
   -1.7104    5.3938   10.3056 H   0  0  0  0  0  0
    0.0133    5.5929   10.0582 H   0  0  0  0  0  0
   -0.1120   -0.0534   13.5861 H   0  0  0  0  0  0
   -2.9574    1.0856   11.7686 H   0  0  0  0  0  0
   -1.7481    1.4355   13.0154 H   0  0  0  0  0  0
   -1.4125    0.2493   11.7259 H   0  0  0  0  0  0
  1  2  1  0  0  0
  1 30  1  0  0  0
  1 31  1  0  0  0
  1 32  1  0  0  0
  2  3  1  0  0  0
  3  4  2  0  0  0
  3 27  1  0  0  0
  4  5  1  0  0  0
  4 33  1  0  0  0
  5  6  2  0  0  0
  5 34  1  0  0  0
  6  7  1  0  0  0
  6 26  1  0  0  0
  7  8  1  0  0  0
  7 35  1  0  0  0
  8  9  2  0  0  0
  8 16  1  0  0  0
  9 10  1  0  0  0
 10 11  2  0  0  0
 10 17  1  0  0  0
 11 12  1  0  0  0
 11 36  1  0  0  0
 12 13  1  0  0  0
 12 16  1  0  0  0
 13 14  2  0  0  0
 13 37  1  0  0  0
 14 15  1  0  0  0
 14 38  1  0  0  0
 15 16  2  0  0  0
 17 18  2  0  0  0
 17 22  1  0  0  0
 18 19  1  0  0  0
 18 39  1  0  0  0
 19 20  2  0  0  0
 19 40  1  0  0  0
 20 21  1  0  0  0
 20 41  1  0  0  0
 21 22  2  0  0  0
 21 23  1  0  0  0
 22 42  1  0  0  0
 23 24  2  0  0  0
 23 25  1  0  0  0
 25 43  1  0  0  0
 25 44  1  0  0  0
 26 27  2  0  0  0
 26 45  1  0  0  0
 27 28  1  0  0  0
 28 29  1  0  0  0
 29 46  1  0  0  0
 29 47  1  0  0  0
 29 48  1  0  0  0
M  END
> <s_m_entry_id>
1109

> <IC50[nM]>
27.1

> <s_m_Source_Path>
/projects/mai/users/kmzp800_harry/pmx_colab/docking_jobs/syk

> <s_m_Source_File>
tnks2_lig.sdf

> <i_m_Source_File_Index>
9

> <s_m_job_name>
glide-dock_SP_syk_mcs

> <r_i_docking_score>
-6.71446457650168

> <r_i_glide_gscore>
-6.71446457650168

> <r_i_glide_emodel>
-47.7174803814856

$$$$
CHEMBL3265024
                    3D
 Schrodinger Suite 2021-4.
 50 54  0  0  1  0            999 V2000
   -4.5313   -3.1959   15.5147 C   0  0  0  0  0  0
   -3.8870   -2.2387   14.6848 O   0  0  0  0  0  0
   -2.5283   -2.0600   14.8278 C   0  0  0  0  0  0
   -1.7369   -2.8227   15.7134 C   0  0  0  0  0  0
   -0.3615   -2.5862   15.8172 C   0  0  0  0  0  0
    0.2532   -1.5648   15.0733 C   0  0  0  0  0  0
    1.6241   -1.3556   15.2878 N   0  0  0  0  0  0
    2.5328   -0.4313   14.7278 C   0  0  0  0  0  0
    2.1977    0.3774   13.7592 N   0  0  0  0  0  0
    3.1247    1.2576   13.2332 C   0  0  0  0  0  0
    4.4244    1.2931   13.6888 C   0  0  0  0  0  0
    4.7589    0.4940   14.7316 N   0  0  0  0  0  0
    5.9087    0.3840   15.4873 C   0  0  0  0  0  0
    5.6172   -0.5001   16.4906 C   0  0  0  0  0  0
    4.3696   -1.0612   16.3259 N   0  0  0  0  0  0
    3.8358   -0.4142   15.3006 C   0  0  0  0  0  0
    2.6525    2.1685   12.1576 C   0  0  0  0  0  0
    3.5605    2.6775   11.1888 C   0  0  0  0  0  0
    3.1496    3.5049   10.1304 C   0  0  0  0  0  0
    1.7942    3.8551   10.0353 C   0  0  0  0  0  0
    1.3685    4.6768    9.0176 O   0  0  0  0  0  0
   -0.0181    4.5939    8.6559 C   0  0  0  0  0  0
   -0.9552    4.4197    9.8667 C   0  0  0  0  0  0
   -2.1152    4.8193    9.8279 O   0  0  0  0  0  0
   -0.4643    3.7823   10.9346 N   0  0  0  0  0  0
    0.8811    3.3882   11.0154 C   0  0  0  0  0  0
    1.2959    2.5511   12.0700 C   0  0  0  0  0  0
   -0.5335   -0.8084   14.1814 C   0  0  0  0  0  0
   -1.9190   -1.0513   14.0464 C   0  0  0  0  0  0
   -2.7350   -0.3185   13.2059 O   0  0  0  0  0  0
   -2.1761    0.7079   12.3934 C   0  0  0  0  0  0
   -5.5946   -3.2097   15.2792 H   0  0  0  0  0  0
   -4.4304   -2.9436   16.5713 H   0  0  0  0  0  0
   -4.1437   -4.2012   15.3435 H   0  0  0  0  0  0
   -2.1607   -3.5960   16.3328 H   0  0  0  0  0  0
    0.2202   -3.1963   16.4902 H   0  0  0  0  0  0
    2.0680   -2.0265   15.9063 H   0  0  0  0  0  0
    5.1964    1.9497   13.3061 H   0  0  0  0  0  0
    6.7759    0.9807   15.2435 H   0  0  0  0  0  0
    6.1881   -0.7861   17.3538 H   0  0  0  0  0  0
    4.6021    2.4125   11.2378 H   0  0  0  0  0  0
    3.8750    3.8514    9.4035 H   0  0  0  0  0  0
   -0.2942    5.4974    8.1108 H   0  0  0  0  0  0
   -0.1583    3.7521    7.9761 H   0  0  0  0  0  0
   -1.0703    3.5961   11.7191 H   0  0  0  0  0  0
    0.5903    2.1887   12.8103 H   0  0  0  0  0  0
   -0.0787   -0.0250   13.6084 H   0  0  0  0  0  0
   -2.9623    1.1199   11.7581 H   0  0  0  0  0  0
   -1.7803    1.5281   12.9943 H   0  0  0  0  0  0
   -1.3938    0.3263   11.7358 H   0  0  0  0  0  0
  1  2  1  0  0  0
  1 32  1  0  0  0
  1 33  1  0  0  0
  1 34  1  0  0  0
  2  3  1  0  0  0
  3  4  2  0  0  0
  3 29  1  0  0  0
  4  5  1  0  0  0
  4 35  1  0  0  0
  5  6  2  0  0  0
  5 36  1  0  0  0
  6  7  1  0  0  0
  6 28  1  0  0  0
  7  8  1  0  0  0
  7 37  1  0  0  0
  8  9  2  0  0  0
  8 16  1  0  0  0
  9 10  1  0  0  0
 10 11  2  0  0  0
 10 17  1  0  0  0
 11 12  1  0  0  0
 11 38  1  0  0  0
 12 13  1  0  0  0
 12 16  1  0  0  0
 13 14  2  0  0  0
 13 39  1  0  0  0
 14 15  1  0  0  0
 14 40  1  0  0  0
 15 16  2  0  0  0
 17 18  2  0  0  0
 17 27  1  0  0  0
 18 19  1  0  0  0
 18 41  1  0  0  0
 19 20  2  0  0  0
 19 42  1  0  0  0
 20 21  1  0  0  0
 20 26  1  0  0  0
 21 22  1  0  0  0
 22 23  1  0  0  0
 22 43  1  0  0  0
 22 44  1  0  0  0
 23 24  2  0  0  0
 23 25  1  0  0  0
 25 26  1  0  0  0
 25 45  1  0  0  0
 26 27  2  0  0  0
 27 46  1  0  0  0
 28 29  2  0  0  0
 28 47  1  0  0  0
 29 30  1  0  0  0
 30 31  1  0  0  0
 31 48  1  0  0  0
 31 49  1  0  0  0
 31 50  1  0  0  0
M  END
> <s_m_entry_id>
1094

> <IC50[nM]>
2.3

> <s_m_Source_Path>
/projects/mai/users/kmzp800_harry/pmx_colab/docking_jobs/syk

> <s_m_Source_File>
tnks2_lig.sdf

> <i_m_Source_File_Index>
10

> <s_m_job_name>
glide-dock_SP_syk_mcs

> <r_i_docking_score>
-6.98415941257149

> <r_i_glide_gscore>
-6.98415941257149

> <r_i_glide_emodel>
-49.9442214686485

$$$$
CHEMBL3265010
                    3D
 Schrodinger Suite 2021-4.
 52 55  0  0  1  0            999 V2000
   -4.5307   -3.1973   15.5387 C   0  0  0  0  0  0
   -3.8840   -2.2703   14.6799 O   0  0  0  0  0  0
   -2.5266   -2.0866   14.8244 C   0  0  0  0  0  0
   -1.7296   -2.8459   15.7086 C   0  0  0  0  0  0
   -0.3561   -2.5999   15.8089 C   0  0  0  0  0  0
    0.2521   -1.5758   15.0659 C   0  0  0  0  0  0
    1.6221   -1.3579   15.2872 N   0  0  0  0  0  0
    2.5316   -0.4379   14.7279 C   0  0  0  0  0  0
    2.1971    0.3682   13.7484 N   0  0  0  0  0  0
    3.1245    1.2515   13.2274 C   0  0  0  0  0  0
    4.4243    1.2876   13.6817 C   0  0  0  0  0  0
    4.7595    0.4877   14.7232 N   0  0  0  0  0  0
    5.9051    0.3789   15.4894 C   0  0  0  0  0  0
    5.6026   -0.5062   16.4960 C   0  0  0  0  0  0
    4.3619   -1.0633   16.3201 N   0  0  0  0  0  0
    3.8327   -0.4190   15.2899 C   0  0  0  0  0  0
    2.6543    2.1674   12.1575 C   0  0  0  0  0  0
    3.5650    2.6716   11.1925 C   0  0  0  0  0  0
    3.1570    3.5005   10.1365 C   0  0  0  0  0  0
    1.8008    3.8627   10.0340 C   0  0  0  0  0  0
    1.3212    4.6482    9.0057 O   0  0  0  0  0  0
    2.0789    5.7849    8.6170 C   0  0  0  0  0  0
    0.8800    3.3958   11.0151 C   0  0  0  0  0  0
    1.2978    2.5466   12.0612 C   0  0  0  0  0  0
   -0.5645    3.7965   10.9598 C   0  0  0  0  0  0
   -1.4682    2.9891   11.1118 O   0  0  0  0  0  0
   -0.8084    5.0898   10.7700 N   0  0  0  0  0  0
   -0.5400   -0.8211   14.1751 C   0  0  0  0  0  0
   -1.9243   -1.0746   14.0448 C   0  0  0  0  0  0
   -2.7430   -0.3533   13.2044 O   0  0  0  0  0  0
   -2.1965    0.6755   12.4061 C   0  0  0  0  0  0
   -5.5918   -3.2252   15.2954 H   0  0  0  0  0  0
   -4.1382   -4.2069   15.4125 H   0  0  0  0  0  0
   -4.4372   -2.8996   16.5841 H   0  0  0  0  0  0
   -2.1456   -3.6216   16.3267 H   0  0  0  0  0  0
    0.2327   -3.2038   16.4834 H   0  0  0  0  0  0
    2.0615   -1.9773   15.9586 H   0  0  0  0  0  0
    5.1972    1.9495   13.3080 H   0  0  0  0  0  0
    6.7713    0.9810   15.2475 H   0  0  0  0  0  0
    6.1609   -0.7847   17.3540 H   0  0  0  0  0  0
    4.6038    2.3936   11.2319 H   0  0  0  0  0  0
    3.8993    3.8204    9.4211 H   0  0  0  0  0  0
    1.5356    6.3245    7.8392 H   0  0  0  0  0  0
    2.2152    6.4755    9.4507 H   0  0  0  0  0  0
    3.0505    5.5126    8.2106 H   0  0  0  0  0  0
    0.5932    2.1831   12.8005 H   0  0  0  0  0  0
   -1.7613    5.4135   10.7328 H   0  0  0  0  0  0
   -0.0339    5.7246   10.6360 H   0  0  0  0  0  0
   -0.0848   -0.0366   13.5998 H   0  0  0  0  0  0
   -3.0051    1.1552   11.8493 H   0  0  0  0  0  0
   -1.7175    1.4457   13.0139 H   0  0  0  0  0  0
   -1.4802    0.2971   11.6753 H   0  0  0  0  0  0
  1  2  1  0  0  0
  1 32  1  0  0  0
  1 33  1  0  0  0
  1 34  1  0  0  0
  2  3  1  0  0  0
  3  4  2  0  0  0
  3 29  1  0  0  0
  4  5  1  0  0  0
  4 35  1  0  0  0
  5  6  2  0  0  0
  5 36  1  0  0  0
  6  7  1  0  0  0
  6 28  1  0  0  0
  7  8  1  0  0  0
  7 37  1  0  0  0
  8  9  2  0  0  0
  8 16  1  0  0  0
  9 10  1  0  0  0
 10 11  2  0  0  0
 10 17  1  0  0  0
 11 12  1  0  0  0
 11 38  1  0  0  0
 12 13  1  0  0  0
 12 16  1  0  0  0
 13 14  2  0  0  0
 13 39  1  0  0  0
 14 15  1  0  0  0
 14 40  1  0  0  0
 15 16  2  0  0  0
 17 18  2  0  0  0
 17 24  1  0  0  0
 18 19  1  0  0  0
 18 41  1  0  0  0
 19 20  2  0  0  0
 19 42  1  0  0  0
 20 21  1  0  0  0
 20 23  1  0  0  0
 21 22  1  0  0  0
 22 43  1  0  0  0
 22 44  1  0  0  0
 22 45  1  0  0  0
 23 24  2  0  0  0
 23 25  1  0  0  0
 24 46  1  0  0  0
 25 26  2  0  0  0
 25 27  1  0  0  0
 27 47  1  0  0  0
 27 48  1  0  0  0
 28 29  2  0  0  0
 28 49  1  0  0  0
 29 30  1  0  0  0
 30 31  1  0  0  0
 31 50  1  0  0  0
 31 51  1  0  0  0
 31 52  1  0  0  0
M  END
> <s_m_entry_id>
1107

> <IC50[nM]>
37.4

> <s_m_Source_Path>
/projects/mai/users/kmzp800_harry/pmx_colab/docking_jobs/syk

> <s_m_Source_File>
tnks2_lig.sdf

> <i_m_Source_File_Index>
11

> <s_m_job_name>
glide-dock_SP_syk_mcs

> <r_i_docking_score>
-6.75156442957013

> <r_i_glide_gscore>
-6.75156442957013

> <r_i_glide_emodel>
-49.690426604259

$$$$
CHEMBL3265014
                    3D
 Schrodinger Suite 2021-4.
 52 55  0  0  1  0            999 V2000
   -4.5486   -3.2089   15.5252 C   0  0  0  0  0  0
   -3.9024   -2.2714   14.6759 O   0  0  0  0  0  0
   -2.5415   -2.0965   14.8227 C   0  0  0  0  0  0
   -1.7382   -2.8660   15.7005 C   0  0  0  0  0  0
   -0.3614   -2.6062   15.8182 C   0  0  0  0  0  0
    0.2449   -1.5763   15.0734 C   0  0  0  0  0  0
    1.6118   -1.3460   15.2932 N   0  0  0  0  0  0
    2.5286   -0.4420   14.7296 C   0  0  0  0  0  0
    2.1951    0.3588   13.7576 N   0  0  0  0  0  0
    3.1266    1.2354   13.2378 C   0  0  0  0  0  0
    4.4299    1.2763   13.6836 C   0  0  0  0  0  0
    4.7635    0.4695   14.7210 N   0  0  0  0  0  0
    5.9077    0.3744   15.4874 C   0  0  0  0  0  0
    5.5969   -0.4925   16.5030 C   0  0  0  0  0  0
    4.3536   -1.0647   16.3273 N   0  0  0  0  0  0
    3.8300   -0.4210   15.2921 C   0  0  0  0  0  0
    2.6535    2.1375   12.1568 C   0  0  0  0  0  0
    3.5675    2.6043   11.1838 C   0  0  0  0  0  0
    3.1547    3.4518   10.1434 C   0  0  0  0  0  0
    1.8095    3.8580   10.0455 C   0  0  0  0  0  0
    1.4367    4.8947    9.0223 C   0  0  0  0  0  0
    2.2643    5.7082    8.6185 O   0  0  0  0  0  0
    0.1849    4.8646    8.5626 N   0  0  0  0  0  0
    0.8787    3.3953   11.0158 C   0  0  0  0  0  0
   -0.4363    3.8019   10.9731 O   0  0  0  0  0  0
   -0.9758    4.3373   12.1768 C   0  0  0  0  0  0
    1.3059    2.5386   12.0540 C   0  0  0  0  0  0
   -0.5535   -0.8277   14.1843 C   0  0  0  0  0  0
   -1.9369   -1.0801   14.0507 C   0  0  0  0  0  0
   -2.7469   -0.3633   13.1982 O   0  0  0  0  0  0
   -2.1823    0.6685   12.4277 C   0  0  0  0  0  0
   -5.6198   -3.1978   15.3259 H   0  0  0  0  0  0
   -4.1913   -4.2230   15.3451 H   0  0  0  0  0  0
   -4.4090   -2.9577   16.5775 H   0  0  0  0  0  0
   -2.1539   -3.6545   16.3101 H   0  0  0  0  0  0
    0.2259   -3.1972   16.5083 H   0  0  0  0  0  0
    2.0292   -1.9187   16.0164 H   0  0  0  0  0  0
    5.1882    1.9657   13.3288 H   0  0  0  0  0  0
    6.7652    0.9976   15.2812 H   0  0  0  0  0  0
    6.1207   -0.7389   17.4016 H   0  0  0  0  0  0
    4.6051    2.3084   11.2142 H   0  0  0  0  0  0
    3.8853    3.8068    9.4306 H   0  0  0  0  0  0
   -0.1195    5.5461    7.8842 H   0  0  0  0  0  0
   -0.4654    4.2077    8.9710 H   0  0  0  0  0  0
   -1.3689    5.3328   11.9720 H   0  0  0  0  0  0
   -1.8047    3.7231   12.5282 H   0  0  0  0  0  0
   -0.2541    4.4413   12.9909 H   0  0  0  0  0  0
    0.5935    2.1938   12.7874 H   0  0  0  0  0  0
   -0.1180   -0.0408   13.6012 H   0  0  0  0  0  0
   -2.9584    1.1316   11.8191 H   0  0  0  0  0  0
   -1.7530    1.4426   13.0634 H   0  0  0  0  0  0
   -1.4190    0.2895   11.7460 H   0  0  0  0  0  0
  1  2  1  0  0  0
  1 32  1  0  0  0
  1 33  1  0  0  0
  1 34  1  0  0  0
  2  3  1  0  0  0
  3  4  2  0  0  0
  3 29  1  0  0  0
  4  5  1  0  0  0
  4 35  1  0  0  0
  5  6  2  0  0  0
  5 36  1  0  0  0
  6  7  1  0  0  0
  6 28  1  0  0  0
  7  8  1  0  0  0
  7 37  1  0  0  0
  8  9  2  0  0  0
  8 16  1  0  0  0
  9 10  1  0  0  0
 10 11  2  0  0  0
 10 17  1  0  0  0
 11 12  1  0  0  0
 11 38  1  0  0  0
 12 13  1  0  0  0
 12 16  1  0  0  0
 13 14  2  0  0  0
 13 39  1  0  0  0
 14 15  1  0  0  0
 14 40  1  0  0  0
 15 16  2  0  0  0
 17 18  2  0  0  0
 17 27  1  0  0  0
 18 19  1  0  0  0
 18 41  1  0  0  0
 19 20  2  0  0  0
 19 42  1  0  0  0
 20 21  1  0  0  0
 20 24  1  0  0  0
 21 22  2  0  0  0
 21 23  1  0  0  0
 23 43  1  0  0  0
 23 44  1  0  0  0
 24 25  1  0  0  0
 24 27  2  0  0  0
 25 26  1  0  0  0
 26 45  1  0  0  0
 26 46  1  0  0  0
 26 47  1  0  0  0
 27 48  1  0  0  0
 28 29  2  0  0  0
 28 49  1  0  0  0
 29 30  1  0  0  0
 30 31  1  0  0  0
 31 50  1  0  0  0
 31 51  1  0  0  0
 31 52  1  0  0  0
M  END
> <s_m_entry_id>
1118

> <IC50[nM]>
23.8

> <s_m_Source_Path>
/projects/mai/users/kmzp800_harry/pmx_colab/docking_jobs/syk

> <s_m_Source_File>
tnks2_lig.sdf

> <i_m_Source_File_Index>
12

> <s_m_job_name>
glide-dock_SP_syk_mcs

> <r_i_docking_score>
-6.58616907944038

> <r_i_glide_gscore>
-6.58616907944038

> <r_i_glide_emodel>
-48.7550099816637

$$$$
CHEMBL3265023
                    3D
 Schrodinger Suite 2021-4.
 50 54  0  0  1  0            999 V2000
   -4.5564   -3.1634   15.5200 C   0  0  0  0  0  0
   -3.9012   -2.2391   14.6608 O   0  0  0  0  0  0
   -2.5397   -2.0629   14.8124 C   0  0  0  0  0  0
   -1.7444   -2.8384   15.6911 C   0  0  0  0  0  0
   -0.3677   -2.5866   15.8136 C   0  0  0  0  0  0
    0.2466   -1.5607   15.0697 C   0  0  0  0  0  0
    1.6111   -1.3344   15.3034 N   0  0  0  0  0  0
    2.5288   -0.4412   14.7284 C   0  0  0  0  0  0
    2.1924    0.3661   13.7634 N   0  0  0  0  0  0
    3.1204    1.2400   13.2445 C   0  0  0  0  0  0
    4.4218    1.2880   13.6939 C   0  0  0  0  0  0
    4.7592    0.4802   14.7301 N   0  0  0  0  0  0
    5.9039    0.3760   15.4927 C   0  0  0  0  0  0
    5.5882   -0.4932   16.5068 C   0  0  0  0  0  0
    4.3460   -1.0604   16.3329 N   0  0  0  0  0  0
    3.8276   -0.4202   15.2918 C   0  0  0  0  0  0
    2.6385    2.1276   12.1605 C   0  0  0  0  0  0
    1.2892    2.5512   12.0707 C   0  0  0  0  0  0
    0.8527    3.3843   11.0137 C   0  0  0  0  0  0
    1.7814    3.8271   10.0544 C   0  0  0  0  0  0
    3.1282    3.4481   10.1440 C   0  0  0  0  0  0
    3.7231    4.1156    9.0791 C   0  0  0  0  0  0
    2.9480    5.0534    8.6033 N   0  0  0  0  0  0
    1.7211    4.7791    9.0686 N   0  0  0  0  0  0
    0.5855    5.5619    8.6135 C   0  0  0  0  0  0
    3.5435    2.5925   11.1765 C   0  0  0  0  0  0
   -0.5437   -0.8118   14.1685 C   0  0  0  0  0  0
   -1.9289   -1.0519   14.0379 C   0  0  0  0  0  0
   -2.7498   -0.3459   13.1809 O   0  0  0  0  0  0
   -2.1674    0.6548   12.3557 C   0  0  0  0  0  0
   -5.6278   -3.1443   15.3122 H   0  0  0  0  0  0
   -4.2009   -4.1813   15.3439 H   0  0  0  0  0  0
   -4.4232   -2.9006   16.5713 H   0  0  0  0  0  0
   -2.1715   -3.6219   16.2972 H   0  0  0  0  0  0
    0.2108   -3.1782   16.5111 H   0  0  0  0  0  0
    2.0296   -1.9062   16.0286 H   0  0  0  0  0  0
    5.1747    1.9804   13.3409 H   0  0  0  0  0  0
    6.7623    0.9961   15.2866 H   0  0  0  0  0  0
    6.1163   -0.7017   17.4116 H   0  0  0  0  0  0
    0.5746    2.2369   12.8181 H   0  0  0  0  0  0
   -0.1712    3.7244   10.9743 H   0  0  0  0  0  0
    4.7360    4.0059    8.7647 H   0  0  0  0  0  0
   -0.0963    5.7421    9.4450 H   0  0  0  0  0  0
    0.9179    6.5254    8.2266 H   0  0  0  0  0  0
    0.0475    5.0260    7.8237 H   0  0  0  0  0  0
    4.5809    2.2984   11.2132 H   0  0  0  0  0  0
   -0.1052   -0.0328   13.5784 H   0  0  0  0  0  0
   -2.9443    1.0830   11.7215 H   0  0  0  0  0  0
   -1.7540    1.4704   12.9476 H   0  0  0  0  0  0
   -1.3884    0.2478   11.7066 H   0  0  0  0  0  0
  1  2  1  0  0  0
  1 31  1  0  0  0
  1 32  1  0  0  0
  1 33  1  0  0  0
  2  3  1  0  0  0
  3  4  2  0  0  0
  3 28  1  0  0  0
  4  5  1  0  0  0
  4 34  1  0  0  0
  5  6  2  0  0  0
  5 35  1  0  0  0
  6  7  1  0  0  0
  6 27  1  0  0  0
  7  8  1  0  0  0
  7 36  1  0  0  0
  8  9  2  0  0  0
  8 16  1  0  0  0
  9 10  1  0  0  0
 10 11  2  0  0  0
 10 17  1  0  0  0
 11 12  1  0  0  0
 11 37  1  0  0  0
 12 13  1  0  0  0
 12 16  1  0  0  0
 13 14  2  0  0  0
 13 38  1  0  0  0
 14 15  1  0  0  0
 14 39  1  0  0  0
 15 16  2  0  0  0
 17 18  2  0  0  0
 17 26  1  0  0  0
 18 19  1  0  0  0
 18 40  1  0  0  0
 19 20  2  0  0  0
 19 41  1  0  0  0
 20 21  1  0  0  0
 20 24  1  0  0  0
 21 22  1  0  0  0
 21 26  2  0  0  0
 22 23  2  0  0  0
 22 42  1  0  0  0
 23 24  1  0  0  0
 24 25  1  0  0  0
 25 43  1  0  0  0
 25 44  1  0  0  0
 25 45  1  0  0  0
 26 46  1  0  0  0
 27 28  2  0  0  0
 27 47  1  0  0  0
 28 29  1  0  0  0
 29 30  1  0  0  0
 30 48  1  0  0  0
 30 49  1  0  0  0
 30 50  1  0  0  0
M  END
> <s_m_entry_id>
1114

> <IC50[nM]>
20.9

> <s_m_Source_Path>
/projects/mai/users/kmzp800_harry/pmx_colab/docking_jobs/syk

> <s_m_Source_File>
tnks2_lig.sdf

> <i_m_Source_File_Index>
13

> <s_m_job_name>
glide-dock_SP_syk_mcs

> <r_i_docking_score>
-6.66146938039113

> <r_i_glide_gscore>
-6.66146938039113

> <r_i_glide_emodel>
-29.211024018083

$$$$
CHEMBL3264997
                    3D
 Schrodinger Suite 2021-4.
 60 64  0  0  1  0            999 V2000
   -4.5339   -3.2228   15.4682 C   0  0  0  0  0  0
   -3.8973   -2.2453   14.6820 O   0  0  0  0  0  0
   -2.5397   -2.0723   14.8231 C   0  0  0  0  0  0
   -1.7479   -2.8266   15.7123 C   0  0  0  0  0  0
   -0.3724   -2.5912   15.8166 C   0  0  0  0  0  0
    0.2461   -1.5717   15.0665 C   0  0  0  0  0  0
    1.6169   -1.3553   15.2904 N   0  0  0  0  0  0
    2.5334   -0.4326   14.7285 C   0  0  0  0  0  0
    2.1967    0.3725   13.7560 N   0  0  0  0  0  0
    3.1152    1.2670   13.2408 C   0  0  0  0  0  0
    4.4185    1.2939   13.6870 C   0  0  0  0  0  0
    4.7598    0.5000   14.7334 N   0  0  0  0  0  0
    5.9086    0.4009   15.4982 C   0  0  0  0  0  0
    5.6202   -0.4998   16.4938 C   0  0  0  0  0  0
    4.3710   -1.0703   16.3225 N   0  0  0  0  0  0
    3.8452   -0.4192   15.2911 C   0  0  0  0  0  0
    2.6475    2.1654   12.1600 C   0  0  0  0  0  0
    3.5556    2.6511   11.1830 C   0  0  0  0  0  0
    3.1446    3.4692   10.1210 C   0  0  0  0  0  0
    1.7911    3.8026   10.0163 C   0  0  0  0  0  0
    0.8695    3.3926   11.0173 C   0  0  0  0  0  0
    1.2927    2.5517   12.0760 C   0  0  0  0  0  0
   -0.5710    3.7892   10.9260 C   0  0  0  0  0  0
   -1.1690    3.7138    9.8474 O   0  0  0  0  0  0
   -1.1047    4.2211   12.0983 N   0  0  0  0  0  0
   -2.4509    4.6275   12.3204 C   0  0  0  0  0  0
   -2.6933    5.6144   13.2996 C   0  0  0  0  0  0
   -4.0044    6.0876   13.5124 C   0  0  0  0  0  0
   -5.0678    5.5956   12.7486 C   0  0  0  0  0  0
   -4.8486    4.5581   11.8139 C   0  0  0  0  0  0
   -3.5385    4.0797   11.6023 C   0  0  0  0  0  0
   -5.9872    3.9840   11.0178 C   0  0  0  0  0  0
   -6.0634    2.7356   10.9002 O   0  0  0  0  0  0
   -6.8755    4.7609   10.5706 O   0  5  0  0  0  0
   -0.5454   -0.8091   14.1801 C   0  0  0  0  0  0
   -1.9292   -1.0667   14.0354 C   0  0  0  0  0  0
   -2.7401   -0.3199   13.1996 O   0  0  0  0  0  0
   -2.1796    0.7004   12.3880 C   0  0  0  0  0  0
   -5.5940   -3.2520   15.2392 H   0  0  0  0  0  0
   -4.1324   -4.2154   15.2735 H   0  0  0  0  0  0
   -4.4435   -3.0043   16.5340 H   0  0  0  0  0  0
   -2.1667   -3.6027   16.3120 H   0  0  0  0  0  0
    0.2124   -3.1877   16.4936 H   0  0  0  0  0  0
    2.0666   -2.0337   15.8953 H   0  0  0  0  0  0
    5.1848    1.9709   13.3188 H   0  0  0  0  0  0
    6.7722    1.0186   15.2623 H   0  0  0  0  0  0
    6.1728   -0.7825   17.3581 H   0  0  0  0  0  0
    4.5895    2.3817   11.2313 H   0  0  0  0  0  0
    3.8654    3.7768    9.3742 H   0  0  0  0  0  0
    1.4606    4.4094    9.1931 H   0  0  0  0  0  0
    0.5992    2.1983   12.8273 H   0  0  0  0  0  0
   -0.4774    4.3356   12.8835 H   0  0  0  0  0  0
   -1.8797    5.9961   13.9027 H   0  0  0  0  0  0
   -4.1811    6.8436   14.2619 H   0  0  0  0  0  0
   -6.0596    5.9937   12.8974 H   0  0  0  0  0  0
   -3.3806    3.3093   10.8568 H   0  0  0  0  0  0
   -0.0890   -0.0202   13.6080 H   0  0  0  0  0  0
   -2.9780    1.1143   11.7543 H   0  0  0  0  0  0
   -1.7775    1.5359   12.9723 H   0  0  0  0  0  0
   -1.4037    0.3135   11.7207 H   0  0  0  0  0  0
  1  2  1  0  0  0
  1 39  1  0  0  0
  1 40  1  0  0  0
  1 41  1  0  0  0
  2  3  1  0  0  0
  3  4  2  0  0  0
  3 36  1  0  0  0
  4  5  1  0  0  0
  4 42  1  0  0  0
  5  6  2  0  0  0
  5 43  1  0  0  0
  6  7  1  0  0  0
  6 35  1  0  0  0
  7  8  1  0  0  0
  7 44  1  0  0  0
  8  9  2  0  0  0
  8 16  1  0  0  0
  9 10  1  0  0  0
 10 11  2  0  0  0
 10 17  1  0  0  0
 11 12  1  0  0  0
 11 45  1  0  0  0
 12 13  1  0  0  0
 12 16  1  0  0  0
 13 14  2  0  0  0
 13 46  1  0  0  0
 14 15  1  0  0  0
 14 47  1  0  0  0
 15 16  2  0  0  0
 17 18  2  0  0  0
 17 22  1  0  0  0
 18 19  1  0  0  0
 18 48  1  0  0  0
 19 20  2  0  0  0
 19 49  1  0  0  0
 20 21  1  0  0  0
 20 50  1  0  0  0
 21 22  2  0  0  0
 21 23  1  0  0  0
 22 51  1  0  0  0
 23 24  2  0  0  0
 23 25  1  0  0  0
 25 26  1  0  0  0
 25 52  1  0  0  0
 26 27  2  0  0  0
 26 31  1  0  0  0
 27 28  1  0  0  0
 27 53  1  0  0  0
 28 29  2  0  0  0
 28 54  1  0  0  0
 29 30  1  0  0  0
 29 55  1  0  0  0
 30 31  2  0  0  0
 30 32  1  0  0  0
 31 56  1  0  0  0
 32 33  2  0  0  0
 32 34  1  0  0  0
 35 36  2  0  0  0
 35 57  1  0  0  0
 36 37  1  0  0  0
 37 38  1  0  0  0
 38 58  1  0  0  0
 38 59  1  0  0  0
 38 60  1  0  0  0
M  CHG  1  34  -1
M  END
> <s_m_entry_id>
1086

> <IC50[nM]>
8.9

> <s_m_Source_Path>
/projects/mai/users/kmzp800_harry/pmx_colab/docking_jobs/syk

> <s_m_Source_File>
tnks2_lig.sdf

> <i_m_Source_File_Index>
14

> <s_m_job_name>
glide-dock_SP_syk_mcs

> <r_i_docking_score>
-7.50655527251201

> <r_i_glide_gscore>
-7.50655527251201

> <r_i_glide_emodel>
-73.4041105340051

$$$$
CHEMBL3264998
                    3D
 Schrodinger Suite 2021-4.
 63 67  0  0  1  0            999 V2000
   -4.5617   -3.0520   15.6353 C   0  0  0  0  0  0
   -3.8985   -2.2168   14.6947 O   0  0  0  0  0  0
   -2.5352   -2.0545   14.8260 C   0  0  0  0  0  0
   -1.7411   -2.8252   15.7079 C   0  0  0  0  0  0
   -0.3641   -2.5795   15.8180 C   0  0  0  0  0  0
    0.2471   -1.5558   15.0699 C   0  0  0  0  0  0
    1.6104   -1.3226   15.3053 N   0  0  0  0  0  0
    2.5298   -0.4303   14.7279 C   0  0  0  0  0  0
    2.2035    0.3703   13.7502 N   0  0  0  0  0  0
    3.1302    1.2565   13.2382 C   0  0  0  0  0  0
    4.4300    1.3018   13.6930 C   0  0  0  0  0  0
    4.7672    0.4850   14.7241 N   0  0  0  0  0  0
    5.9145    0.3850   15.4867 C   0  0  0  0  0  0
    5.6170   -0.4989   16.4929 C   0  0  0  0  0  0
    4.3675   -1.0642   16.3164 N   0  0  0  0  0  0
    3.8349   -0.4138   15.2874 C   0  0  0  0  0  0
    2.6511    2.1629   12.1613 C   0  0  0  0  0  0
    3.5664    2.6641   11.1995 C   0  0  0  0  0  0
    3.1517    3.4914   10.1424 C   0  0  0  0  0  0
    1.8022    3.8572   10.0459 C   0  0  0  0  0  0
    0.8766    3.3961   11.0130 C   0  0  0  0  0  0
    1.2943    2.5529   12.0690 C   0  0  0  0  0  0
   -0.5675    3.7839   10.8889 C   0  0  0  0  0  0
   -1.1761    3.5536    9.8415 O   0  0  0  0  0  0
   -1.0735    4.4038   11.9761 N   0  0  0  0  0  0
   -2.3902    4.9020   12.2206 C   0  0  0  0  0  0
   -3.4740    4.7669   11.3196 C   0  0  0  0  0  0
   -4.7450    5.2803   11.6517 C   0  0  0  0  0  0
   -4.9676    5.8964   12.9003 C   0  0  0  0  0  0
   -6.3544    6.4184   13.2595 C   0  0  0  0  0  0
   -6.4159    7.9306   13.0167 C   0  0  0  0  0  0
   -7.3397    8.3648   12.2938 O   0  0  0  0  0  0
   -5.5699    8.6408   13.6068 O   0  5  0  0  0  0
   -3.9025    6.0039   13.8161 C   0  0  0  0  0  0
   -2.6160    5.5485   13.4557 C   0  0  0  0  0  0
   -0.5440   -0.8110   14.1706 C   0  0  0  0  0  0
   -1.9284   -1.0536   14.0366 C   0  0  0  0  0  0
   -2.7382   -0.3156   13.1963 O   0  0  0  0  0  0
   -2.1518    0.6760   12.3610 C   0  0  0  0  0  0
   -5.6325   -3.0159   15.4430 H   0  0  0  0  0  0
   -4.2468   -4.0947   15.5457 H   0  0  0  0  0  0
   -4.3983   -2.7129   16.6625 H   0  0  0  0  0  0
   -2.1633   -3.6018   16.3282 H   0  0  0  0  0  0
    0.2156   -3.1697   16.5135 H   0  0  0  0  0  0
    2.0293   -1.8913   16.0307 H   0  0  0  0  0  0
    5.1854    1.9976   13.3460 H   0  0  0  0  0  0
    6.7695    1.0102   15.2790 H   0  0  0  0  0  0
    6.1413   -0.7795   17.3809 H   0  0  0  0  0  0
    4.6069    2.3813   11.2354 H   0  0  0  0  0  0
    3.8654    3.8349    9.4083 H   0  0  0  0  0  0
    1.4765    4.4896    9.2320 H   0  0  0  0  0  0
    0.5778    2.1925   12.7932 H   0  0  0  0  0  0
   -0.4066    4.5601   12.7197 H   0  0  0  0  0  0
   -3.3609    4.2853   10.3616 H   0  0  0  0  0  0
   -5.5583    5.1880   10.9471 H   0  0  0  0  0  0
   -6.5685    6.2196   14.3087 H   0  0  0  0  0  0
   -7.1170    5.9057   12.6702 H   0  0  0  0  0  0
   -4.0641    6.4615   14.7818 H   0  0  0  0  0  0
   -1.8038    5.6573   14.1625 H   0  0  0  0  0  0
   -0.1031   -0.0293   13.5871 H   0  0  0  0  0  0
   -2.9213    1.1189   11.7283 H   0  0  0  0  0  0
   -1.7150    1.4805   12.9515 H   0  0  0  0  0  0
   -1.3974    0.2470   11.7015 H   0  0  0  0  0  0
  1  2  1  0  0  0
  1 40  1  0  0  0
  1 41  1  0  0  0
  1 42  1  0  0  0
  2  3  1  0  0  0
  3  4  2  0  0  0
  3 37  1  0  0  0
  4  5  1  0  0  0
  4 43  1  0  0  0
  5  6  2  0  0  0
  5 44  1  0  0  0
  6  7  1  0  0  0
  6 36  1  0  0  0
  7  8  1  0  0  0
  7 45  1  0  0  0
  8  9  2  0  0  0
  8 16  1  0  0  0
  9 10  1  0  0  0
 10 11  2  0  0  0
 10 17  1  0  0  0
 11 12  1  0  0  0
 11 46  1  0  0  0
 12 13  1  0  0  0
 12 16  1  0  0  0
 13 14  2  0  0  0
 13 47  1  0  0  0
 14 15  1  0  0  0
 14 48  1  0  0  0
 15 16  2  0  0  0
 17 18  2  0  0  0
 17 22  1  0  0  0
 18 19  1  0  0  0
 18 49  1  0  0  0
 19 20  2  0  0  0
 19 50  1  0  0  0
 20 21  1  0  0  0
 20 51  1  0  0  0
 21 22  2  0  0  0
 21 23  1  0  0  0
 22 52  1  0  0  0
 23 24  2  0  0  0
 23 25  1  0  0  0
 25 26  1  0  0  0
 25 53  1  0  0  0
 26 27  2  0  0  0
 26 35  1  0  0  0
 27 28  1  0  0  0
 27 54  1  0  0  0
 28 29  2  0  0  0
 28 55  1  0  0  0
 29 30  1  0  0  0
 29 34  1  0  0  0
 30 31  1  0  0  0
 30 56  1  0  0  0
 30 57  1  0  0  0
 31 32  2  0  0  0
 31 33  1  0  0  0
 34 35  2  0  0  0
 34 58  1  0  0  0
 35 59  1  0  0  0
 36 37  2  0  0  0
 36 60  1  0  0  0
 37 38  1  0  0  0
 38 39  1  0  0  0
 39 61  1  0  0  0
 39 62  1  0  0  0
 39 63  1  0  0  0
M  CHG  1  33  -1
M  END
> <s_m_entry_id>
1081

> <IC50[nM]>
2.6

> <s_m_Source_Path>
/projects/mai/users/kmzp800_harry/pmx_colab/docking_jobs/syk

> <s_m_Source_File>
tnks2_lig.sdf

> <i_m_Source_File_Index>
15

> <s_m_job_name>
glide-dock_SP_syk_mcs

> <r_i_docking_score>
-8.09836208672704

> <r_i_glide_gscore>
-8.09836208672704

> <r_i_glide_emodel>
-82.5683699408997

$$$$
CHEMBL3265027
                    3D
 Schrodinger Suite 2021-4.
 39 43  0  0  1  0            999 V2000
    1.6191   -1.3555   15.2870 N   0  0  0  0  0  0
    0.2503   -1.5715   15.0674 C   0  0  0  0  0  0
   -0.5358   -0.8286   14.1583 C   0  0  0  0  0  0
   -1.9114   -1.0948   14.0165 C   0  0  0  0  0  0
   -2.5199   -2.0917   14.7996 C   0  0  0  0  0  0
   -1.7452   -2.8373   15.7022 C   0  0  0  0  0  0
   -0.3691   -2.5910   15.8174 C   0  0  0  0  0  0
    2.5285   -0.4377   14.7275 C   0  0  0  0  0  0
    2.1917    0.3751   13.7621 N   0  0  0  0  0  0
    3.1187    1.2526   13.2373 C   0  0  0  0  0  0
    4.4198    1.2865   13.6828 C   0  0  0  0  0  0
    4.7562    0.4868   14.7283 N   0  0  0  0  0  0
    5.9060    0.3786   15.4832 C   0  0  0  0  0  0
    5.6110   -0.5049   16.4902 C   0  0  0  0  0  0
    4.3609   -1.0618   16.3299 N   0  0  0  0  0  0
    3.8286   -0.4141   15.2965 C   0  0  0  0  0  0
    2.6468    2.1620   12.1636 C   0  0  0  0  0  0
    3.5544    2.6642   11.1910 C   0  0  0  0  0  0
    3.1431    3.4901   10.1299 C   0  0  0  0  0  0
    1.7862    3.8566   10.0269 C   0  0  0  0  0  0
    0.9827    4.6292    9.1364 C   0  0  0  0  0  0
   -0.2725    4.6487    9.5164 N   0  0  0  0  0  0
   -0.3325    3.9084   10.6497 N   0  0  0  0  0  0
    0.8855    3.3816   11.0252 C   0  0  0  0  0  0
    1.2915    2.5483   12.0793 C   0  0  0  0  0  0
    2.0527   -1.9987   15.9441 H   0  0  0  0  0  0
   -0.0992   -0.0504   13.5601 H   0  0  0  0  0  0
   -2.4985   -0.5345   13.3056 H   0  0  0  0  0  0
   -3.5746   -2.2958   14.7114 H   0  0  0  0  0  0
   -2.1956   -3.6035   16.3117 H   0  0  0  0  0  0
    0.2015   -3.1970   16.5037 H   0  0  0  0  0  0
    5.1904    1.9421   13.2986 H   0  0  0  0  0  0
    6.7731    0.9759   15.2349 H   0  0  0  0  0  0
    6.1805   -0.7796   17.3507 H   0  0  0  0  0  0
    4.5952    2.3917   11.2344 H   0  0  0  0  0  0
    3.8701    3.8308    9.4024 H   0  0  0  0  0  0
    1.2809    5.1625    8.2457 H   0  0  0  0  0  0
   -1.2125    3.7922   11.1321 H   0  0  0  0  0  0
    0.5768    2.1967   12.8129 H   0  0  0  0  0  0
  1  2  1  0  0  0
  1  8  1  0  0  0
  1 26  1  0  0  0
  2  3  2  0  0  0
  2  7  1  0  0  0
  3  4  1  0  0  0
  3 27  1  0  0  0
  4  5  2  0  0  0
  4 28  1  0  0  0
  5  6  1  0  0  0
  5 29  1  0  0  0
  6  7  2  0  0  0
  6 30  1  0  0  0
  7 31  1  0  0  0
  8  9  2  0  0  0
  8 16  1  0  0  0
  9 10  1  0  0  0
 10 11  2  0  0  0
 10 17  1  0  0  0
 11 12  1  0  0  0
 11 32  1  0  0  0
 12 13  1  0  0  0
 12 16  1  0  0  0
 13 14  2  0  0  0
 13 33  1  0  0  0
 14 15  1  0  0  0
 14 34  1  0  0  0
 15 16  2  0  0  0
 17 18  2  0  0  0
 17 25  1  0  0  0
 18 19  1  0  0  0
 18 35  1  0  0  0
 19 20  2  0  0  0
 19 36  1  0  0  0
 20 21  1  0  0  0
 20 24  1  0  0  0
 21 22  2  0  0  0
 21 37  1  0  0  0
 22 23  1  0  0  0
 23 24  1  0  0  0
 23 38  1  0  0  0
 24 25  2  0  0  0
 25 39  1  0  0  0
M  END
> <s_m_entry_id>
1106

> <IC50[nM]>
26.8

> <s_m_Source_Path>
/projects/mai/users/kmzp800_harry/pmx_colab/docking_jobs/syk

> <s_m_Source_File>
tnks2_lig.sdf

> <i_m_Source_File_Index>
16

> <s_m_job_name>
glide-dock_SP_syk_mcs

> <r_i_docking_score>
-6.76099114935286

> <r_i_glide_gscore>
-6.76099114935286

> <r_i_glide_emodel>
-39.2015032658172

$$$$
CHEMBL3265006
                    3D
 Schrodinger Suite 2021-4.
 51 54  0  0  1  0            999 V2000
   -2.4595    4.2200    9.3672 C   0  0  0  0  0  0
   -1.0714    3.9079    9.6758 N   0  0  0  0  0  0
   -0.5890    3.7688   10.9185 C   0  0  0  0  0  0
   -1.2819    3.8862   11.9299 O   0  0  0  0  0  0
    0.8584    3.3890   11.0091 C   0  0  0  0  0  0
    1.7889    3.8519   10.0458 C   0  0  0  0  0  0
    3.1415    3.4927   10.1403 C   0  0  0  0  0  0
    3.5580    2.6728   11.1983 C   0  0  0  0  0  0
    2.6465    2.1653   12.1638 C   0  0  0  0  0  0
    1.2887    2.5523   12.0643 C   0  0  0  0  0  0
    3.1239    1.2479   13.2302 C   0  0  0  0  0  0
    4.4274    1.2782   13.6765 C   0  0  0  0  0  0
    4.7598    0.4764   14.7161 N   0  0  0  0  0  0
    5.9090    0.3704   15.4741 C   0  0  0  0  0  0
    5.6015   -0.4949   16.4943 C   0  0  0  0  0  0
    4.3505   -1.0418   16.3419 N   0  0  0  0  0  0
    3.8287   -0.4177   15.2893 C   0  0  0  0  0  0
    2.5248   -0.4352   14.7279 C   0  0  0  0  0  0
    1.6071   -1.3367   15.2987 N   0  0  0  0  0  0
    0.2424   -1.5594   15.0743 C   0  0  0  0  0  0
   -0.3686   -2.5901   15.8142 C   0  0  0  0  0  0
   -1.7398   -2.8529   15.6770 C   0  0  0  0  0  0
   -2.5179   -2.0997   14.7787 C   0  0  0  0  0  0
   -3.8548   -2.3698   14.6475 O   0  0  0  0  0  0
   -4.2029   -3.0189   13.4306 C   0  0  0  0  0  0
   -1.9255   -1.0585   14.0331 C   0  0  0  0  0  0
   -2.7402   -0.3224   13.2020 O   0  0  0  0  0  0
   -2.1681    0.7017   12.4005 C   0  0  0  0  0  0
   -0.5454   -0.8024   14.1824 C   0  0  0  0  0  0
    2.1955    0.3672   13.7511 N   0  0  0  0  0  0
   -2.6049    4.2422    8.2856 H   0  0  0  0  0  0
   -2.7335    5.1975    9.7701 H   0  0  0  0  0  0
   -3.1321    3.4708    9.7900 H   0  0  0  0  0  0
   -0.4402    3.7712    8.9008 H   0  0  0  0  0  0
    1.4707    4.4921    9.2351 H   0  0  0  0  0  0
    3.8565    3.8395    9.4057 H   0  0  0  0  0  0
    4.5999    2.4033   11.2478 H   0  0  0  0  0  0
    0.5630    2.2022   12.7882 H   0  0  0  0  0  0
    5.1940    1.9489   13.3061 H   0  0  0  0  0  0
    6.7774    0.9704   15.2456 H   0  0  0  0  0  0
    6.1423   -0.7468   17.3777 H   0  0  0  0  0  0
    2.0170   -1.9399   16.0065 H   0  0  0  0  0  0
    0.2107   -3.1917   16.4973 H   0  0  0  0  0  0
   -2.1808   -3.6439   16.2626 H   0  0  0  0  0  0
   -5.2846   -3.1577   13.3988 H   0  0  0  0  0  0
   -3.9123   -2.4431   12.5515 H   0  0  0  0  0  0
   -3.7452   -4.0078   13.3677 H   0  0  0  0  0  0
   -2.9526    1.1692   11.8058 H   0  0  0  0  0  0
   -1.7271    1.4805   13.0202 H   0  0  0  0  0  0
   -1.4174    0.3128   11.7105 H   0  0  0  0  0  0
   -0.1002   -0.0069   13.6164 H   0  0  0  0  0  0
  1  2  1  0  0  0
  1 31  1  0  0  0
  1 32  1  0  0  0
  1 33  1  0  0  0
  2  3  1  0  0  0
  2 34  1  0  0  0
  3  4  2  0  0  0
  3  5  1  0  0  0
  5  6  2  0  0  0
  5 10  1  0  0  0
  6  7  1  0  0  0
  6 35  1  0  0  0
  7  8  2  0  0  0
  7 36  1  0  0  0
  8  9  1  0  0  0
  8 37  1  0  0  0
  9 10  2  0  0  0
  9 11  1  0  0  0
 10 38  1  0  0  0
 11 12  2  0  0  0
 11 30  1  0  0  0
 12 13  1  0  0  0
 12 39  1  0  0  0
 13 14  1  0  0  0
 13 17  1  0  0  0
 14 15  2  0  0  0
 14 40  1  0  0  0
 15 16  1  0  0  0
 15 41  1  0  0  0
 16 17  2  0  0  0
 17 18  1  0  0  0
 18 19  1  0  0  0
 18 30  2  0  0  0
 19 20  1  0  0  0
 19 42  1  0  0  0
 20 21  2  0  0  0
 20 29  1  0  0  0
 21 22  1  0  0  0
 21 43  1  0  0  0
 22 23  2  0  0  0
 22 44  1  0  0  0
 23 24  1  0  0  0
 23 26  1  0  0  0
 24 25  1  0  0  0
 25 45  1  0  0  0
 25 46  1  0  0  0
 25 47  1  0  0  0
 26 27  1  0  0  0
 26 29  2  0  0  0
 27 28  1  0  0  0
 28 48  1  0  0  0
 28 49  1  0  0  0
 28 50  1  0  0  0
 29 51  1  0  0  0
M  END
> <s_m_entry_id>
1117

> <IC50[nM]>
50.2

> <s_m_Source_Path>
/projects/mai/users/kmzp800_harry/pmx_colab/docking_jobs/syk

> <s_m_Source_File>
tnks2_lig.sdf

> <i_m_Source_File_Index>
17

> <s_m_job_name>
glide-dock_SP_syk_mcs

> <r_i_docking_score>
-6.6025163812541

> <r_i_glide_gscore>
-6.6025163812541

> <r_i_glide_emodel>
-49.5616158176299

$$$$
CHEMBL3265003
                    3D
 Schrodinger Suite 2021-4.
 65 70  0  0  1  0            999 V2000
   -4.5534   -3.1118   15.5924 C   0  0  0  0  0  0
   -3.9025   -2.2242   14.6943 O   0  0  0  0  0  0
   -2.5397   -2.0568   14.8255 C   0  0  0  0  0  0
   -1.7401   -2.8230   15.7041 C   0  0  0  0  0  0
   -0.3645   -2.5787   15.8171 C   0  0  0  0  0  0
    0.2481   -1.5611   15.0657 C   0  0  0  0  0  0
    1.6163   -1.3390   15.2923 N   0  0  0  0  0  0
    2.5318   -0.4317   14.7279 C   0  0  0  0  0  0
    2.1997    0.3666   13.7475 N   0  0  0  0  0  0
    3.1264    1.2464   13.2202 C   0  0  0  0  0  0
    4.4279    1.2909   13.6787 C   0  0  0  0  0  0
    4.7671    0.4831   14.7162 N   0  0  0  0  0  0
    5.9176    0.3716   15.4765 C   0  0  0  0  0  0
    5.6148   -0.4990   16.4912 C   0  0  0  0  0  0
    4.3640   -1.0540   16.3210 N   0  0  0  0  0  0
    3.8360   -0.4140   15.2871 C   0  0  0  0  0  0
    2.6466    2.1547   12.1428 C   0  0  0  0  0  0
    3.5676    2.6729   11.1895 C   0  0  0  0  0  0
    3.1558    3.5036   10.1340 C   0  0  0  0  0  0
    1.8014    3.8567   10.0353 C   0  0  0  0  0  0
    0.8782    3.3985   11.0051 C   0  0  0  0  0  0
    1.2939    2.5547   12.0603 C   0  0  0  0  0  0
   -0.5643    3.7712   10.8737 C   0  0  0  0  0  0
   -1.1114    3.7047    9.7734 O   0  0  0  0  0  0
   -1.1401    4.2002   12.0113 N   0  0  0  0  0  0
   -2.4453    4.7217   12.2171 C   0  0  0  0  0  0
   -3.5208    4.5213   11.3177 C   0  0  0  0  0  0
   -4.7780    5.1020   11.5764 C   0  0  0  0  0  0
   -4.9911    5.8607   12.7452 C   0  0  0  0  0  0
   -3.9362    6.0040   13.6686 C   0  0  0  0  0  0
   -2.6645    5.4652   13.3981 C   0  0  0  0  0  0
   -6.2711    6.5054   13.0001 C   0  0  0  0  0  0
   -7.5335    6.0026   13.1497 C   0  0  0  0  0  0
   -8.3260    7.1604   13.4118 C   0  0  0  0  0  0
   -7.6228    8.2870   13.3990 N   0  0  0  0  0  0
   -6.3664    7.8745   13.1298 N   0  0  0  0  0  0
   -0.5455   -0.8127   14.1687 C   0  0  0  0  0  0
   -1.9319   -1.0539   14.0395 C   0  0  0  0  0  0
   -2.7432   -0.3222   13.1960 O   0  0  0  0  0  0
   -2.1603    0.6845   12.3772 C   0  0  0  0  0  0
   -5.6253   -3.0863   15.3833 H   0  0  0  0  0  0
   -4.2023   -4.1408   15.4817 H   0  0  0  0  0  0
   -4.4079   -2.8008   16.6268 H   0  0  0  0  0  0
   -2.1539   -3.5991   16.3284 H   0  0  0  0  0  0
    0.2105   -3.1717   16.5165 H   0  0  0  0  0  0
    2.0309   -1.8913   16.0362 H   0  0  0  0  0  0
    5.1925    1.9642   13.3103 H   0  0  0  0  0  0
    6.7814    0.9755   15.2563 H   0  0  0  0  0  0
    6.1487   -0.7877   17.3747 H   0  0  0  0  0  0
    4.6080    2.3982   11.2423 H   0  0  0  0  0  0
    3.8763    3.8576    9.4068 H   0  0  0  0  0  0
    1.4816    4.4929    9.2208 H   0  0  0  0  0  0
    0.5838    2.1829   12.7880 H   0  0  0  0  0  0
   -0.5196    4.2718   12.8051 H   0  0  0  0  0  0
   -3.4005    3.9467   10.4107 H   0  0  0  0  0  0
   -5.5849    4.9658   10.8694 H   0  0  0  0  0  0
   -4.0930    6.5620   14.5820 H   0  0  0  0  0  0
   -1.8694    5.6137   14.1197 H   0  0  0  0  0  0
   -7.8394    4.9656   13.0995 H   0  0  0  0  0  0
   -9.3895    7.2130   13.5989 H   0  0  0  0  0  0
   -5.6046    8.5304   13.0189 H   0  0  0  0  0  0
   -0.1068   -0.0236   13.5905 H   0  0  0  0  0  0
   -2.9353    1.1455   11.7664 H   0  0  0  0  0  0
   -1.7282    1.4828   12.9834 H   0  0  0  0  0  0
   -1.3987    0.2745   11.7091 H   0  0  0  0  0  0
  1  2  1  0  0  0
  1 41  1  0  0  0
  1 42  1  0  0  0
  1 43  1  0  0  0
  2  3  1  0  0  0
  3  4  2  0  0  0
  3 38  1  0  0  0
  4  5  1  0  0  0
  4 44  1  0  0  0
  5  6  2  0  0  0
  5 45  1  0  0  0
  6  7  1  0  0  0
  6 37  1  0  0  0
  7  8  1  0  0  0
  7 46  1  0  0  0
  8  9  2  0  0  0
  8 16  1  0  0  0
  9 10  1  0  0  0
 10 11  2  0  0  0
 10 17  1  0  0  0
 11 12  1  0  0  0
 11 47  1  0  0  0
 12 13  1  0  0  0
 12 16  1  0  0  0
 13 14  2  0  0  0
 13 48  1  0  0  0
 14 15  1  0  0  0
 14 49  1  0  0  0
 15 16  2  0  0  0
 17 18  2  0  0  0
 17 22  1  0  0  0
 18 19  1  0  0  0
 18 50  1  0  0  0
 19 20  2  0  0  0
 19 51  1  0  0  0
 20 21  1  0  0  0
 20 52  1  0  0  0
 21 22  2  0  0  0
 21 23  1  0  0  0
 22 53  1  0  0  0
 23 24  2  0  0  0
 23 25  1  0  0  0
 25 26  1  0  0  0
 25 54  1  0  0  0
 26 27  2  0  0  0
 26 31  1  0  0  0
 27 28  1  0  0  0
 27 55  1  0  0  0
 28 29  2  0  0  0
 28 56  1  0  0  0
 29 30  1  0  0  0
 29 32  1  0  0  0
 30 31  2  0  0  0
 30 57  1  0  0  0
 31 58  1  0  0  0
 32 36  1  0  0  0
 32 33  2  0  0  0
 33 34  1  0  0  0
 33 59  1  0  0  0
 34 60  1  0  0  0
 34 35  2  0  0  0
 35 36  1  0  0  0
 36 61  1  0  0  0
 37 38  2  0  0  0
 37 62  1  0  0  0
 38 39  1  0  0  0
 39 40  1  0  0  0
 40 63  1  0  0  0
 40 64  1  0  0  0
 40 65  1  0  0  0
M  END
> <s_m_entry_id>
1085

> <IC50[nM]>
11.7

> <s_m_Source_Path>
/projects/mai/users/kmzp800_harry/pmx_colab/docking_jobs/syk

> <s_m_Source_File>
tnks2_lig.sdf

> <i_m_Source_File_Index>
18

> <s_m_job_name>
glide-dock_SP_syk_mcs

> <r_i_docking_score>
-7.5260030759549

> <r_i_glide_gscore>
-7.5260030759549

> <r_i_glide_emodel>
-69.6687066641004

$$$$
CHEMBL3265018
                    3D
 Schrodinger Suite 2021-4.
 47 51  0  0  1  0            999 V2000
   -4.5346   -3.2156   15.4947 C   0  0  0  0  0  0
   -3.8888   -2.2527   14.6728 O   0  0  0  0  0  0
   -2.5327   -2.0667   14.8214 C   0  0  0  0  0  0
   -1.7430   -2.8265   15.7099 C   0  0  0  0  0  0
   -0.3692   -2.5861   15.8174 C   0  0  0  0  0  0
    0.2447   -1.5643   15.0745 C   0  0  0  0  0  0
    1.6149   -1.3529   15.2932 N   0  0  0  0  0  0
    2.5243   -0.4312   14.7283 C   0  0  0  0  0  0
    2.1873    0.3768   13.7583 N   0  0  0  0  0  0
    3.1144    1.2540   13.2257 C   0  0  0  0  0  0
    4.4145    1.2873   13.6816 C   0  0  0  0  0  0
    4.7497    0.4933   14.7281 N   0  0  0  0  0  0
    5.9008    0.3855   15.4821 C   0  0  0  0  0  0
    5.6100   -0.4987   16.4907 C   0  0  0  0  0  0
    4.3628   -1.0584   16.3292 N   0  0  0  0  0  0
    3.8289   -0.4133   15.2989 C   0  0  0  0  0  0
    2.6452    2.1665   12.1515 C   0  0  0  0  0  0
    3.5598    2.6656   11.1826 C   0  0  0  0  0  0
    3.1603    3.4973   10.1238 C   0  0  0  0  0  0
    1.8065    3.8686   10.0243 C   0  0  0  0  0  0
    1.1586    4.6475    9.0846 N   0  0  0  0  0  0
   -0.0940    4.6218    9.5258 C   0  0  0  0  0  0
   -0.3209    3.9296   10.6420 N   0  0  0  0  0  0
    0.8922    3.3939   11.0174 C   0  0  0  0  0  0
    1.2902    2.5560   12.0688 C   0  0  0  0  0  0
   -0.5403   -0.8078   14.1817 C   0  0  0  0  0  0
   -1.9243   -1.0546   14.0427 C   0  0  0  0  0  0
   -2.7379   -0.3191   13.2031 O   0  0  0  0  0  0
   -2.1783    0.7032   12.3845 C   0  0  0  0  0  0
   -5.5964   -3.2369   15.2510 H   0  0  0  0  0  0
   -4.4447   -2.9634   16.5524 H   0  0  0  0  0  0
   -4.1391   -4.2181   15.3271 H   0  0  0  0  0  0
   -2.1641   -3.6008   16.3254 H   0  0  0  0  0  0
    0.2130   -3.1953   16.4883 H   0  0  0  0  0  0
    2.0612   -2.0220   15.9132 H   0  0  0  0  0  0
    5.1929    1.9323   13.2894 H   0  0  0  0  0  0
    6.7685    0.9786   15.2286 H   0  0  0  0  0  0
    6.1810   -0.7667   17.3462 H   0  0  0  0  0  0
    4.5983    2.3888   11.2346 H   0  0  0  0  0  0
    3.8873    3.8394    9.3998 H   0  0  0  0  0  0
   -0.9004    5.1226    9.0226 H   0  0  0  0  0  0
   -1.2165    3.8499   11.0861 H   0  0  0  0  0  0
    0.5762    2.1928   12.7983 H   0  0  0  0  0  0
   -0.0817   -0.0230   13.6126 H   0  0  0  0  0  0
   -2.9658    1.1179   11.7520 H   0  0  0  0  0  0
   -1.7766    1.5212   12.9831 H   0  0  0  0  0  0
   -1.4010    0.3164   11.7255 H   0  0  0  0  0  0
  1  2  1  0  0  0
  1 30  1  0  0  0
  1 31  1  0  0  0
  1 32  1  0  0  0
  2  3  1  0  0  0
  3  4  2  0  0  0
  3 27  1  0  0  0
  4  5  1  0  0  0
  4 33  1  0  0  0
  5  6  2  0  0  0
  5 34  1  0  0  0
  6  7  1  0  0  0
  6 26  1  0  0  0
  7  8  1  0  0  0
  7 35  1  0  0  0
  8  9  2  0  0  0
  8 16  1  0  0  0
  9 10  1  0  0  0
 10 11  2  0  0  0
 10 17  1  0  0  0
 11 12  1  0  0  0
 11 36  1  0  0  0
 12 13  1  0  0  0
 12 16  1  0  0  0
 13 14  2  0  0  0
 13 37  1  0  0  0
 14 15  1  0  0  0
 14 38  1  0  0  0
 15 16  2  0  0  0
 17 18  2  0  0  0
 17 25  1  0  0  0
 18 19  1  0  0  0
 18 39  1  0  0  0
 19 20  2  0  0  0
 19 40  1  0  0  0
 20 21  1  0  0  0
 20 24  1  0  0  0
 21 22  2  0  0  0
 22 23  1  0  0  0
 22 41  1  0  0  0
 23 24  1  0  0  0
 23 42  1  0  0  0
 24 25  2  0  0  0
 25 43  1  0  0  0
 26 27  2  0  0  0
 26 44  1  0  0  0
 27 28  1  0  0  0
 28 29  1  0  0  0
 29 45  1  0  0  0
 29 46  1  0  0  0
 29 47  1  0  0  0
M  END
> <s_m_entry_id>
1100

> <IC50[nM]>
6.3

> <s_m_Source_Path>
/projects/mai/users/kmzp800_harry/pmx_colab/docking_jobs/syk

> <s_m_Source_File>
tnks2_lig.sdf

> <i_m_Source_File_Index>
19

> <s_m_job_name>
glide-dock_SP_syk_mcs

> <r_i_docking_score>
-6.84076254840403

> <r_i_glide_gscore>
-6.84076254840403

> <r_i_glide_emodel>
-46.8532549338364

$$$$
CHEMBL3265025
                    3D
 Schrodinger Suite 2021-4.
 50 54  0  0  1  0            999 V2000
   -4.5308   -3.1943   15.5174 C   0  0  0  0  0  0
   -3.8858   -2.2400   14.6855 O   0  0  0  0  0  0
   -2.5281   -2.0615   14.8256 C   0  0  0  0  0  0
   -1.7374   -2.8216   15.7142 C   0  0  0  0  0  0
   -0.3627   -2.5842   15.8173 C   0  0  0  0  0  0
    0.2522   -1.5652   15.0707 C   0  0  0  0  0  0
    1.6211   -1.3531   15.2875 N   0  0  0  0  0  0
    2.5310   -0.4312   14.7278 C   0  0  0  0  0  0
    2.1953    0.3803   13.7582 N   0  0  0  0  0  0
    3.1229    1.2592   13.2305 C   0  0  0  0  0  0
    4.4227    1.2940   13.6865 C   0  0  0  0  0  0
    4.7583    0.4944   14.7304 N   0  0  0  0  0  0
    5.9076    0.3876   15.4879 C   0  0  0  0  0  0
    5.6136   -0.4974   16.4933 C   0  0  0  0  0  0
    4.3681   -1.0613   16.3268 N   0  0  0  0  0  0
    3.8342   -0.4136   15.2972 C   0  0  0  0  0  0
    2.6509    2.1729   12.1579 C   0  0  0  0  0  0
    3.5603    2.6787   11.1890 C   0  0  0  0  0  0
    3.1486    3.5045   10.1304 C   0  0  0  0  0  0
    1.7918    3.8515   10.0425 C   0  0  0  0  0  0
    1.3236    4.6247    8.9604 N   0  0  0  0  0  0
    0.0718    5.0971    8.9135 C   0  0  0  0  0  0
   -0.3697    5.7065    7.9399 O   0  0  0  0  0  0
   -0.8023    4.8784   10.1633 C   0  0  0  0  0  0
   -0.4619    3.6962   10.9122 O   0  0  0  0  0  0
    0.8712    3.3882   11.0174 C   0  0  0  0  0  0
    1.2938    2.5524   12.0705 C   0  0  0  0  0  0
   -0.5342   -0.8122   14.1741 C   0  0  0  0  0  0
   -1.9193   -1.0544   14.0414 C   0  0  0  0  0  0
   -2.7356   -0.3177   13.2049 O   0  0  0  0  0  0
   -2.1710    0.6958   12.3799 C   0  0  0  0  0  0
   -5.5940   -3.2070   15.2793 H   0  0  0  0  0  0
   -4.4324   -2.9405   16.5733 H   0  0  0  0  0  0
   -4.1438   -4.1997   15.3492 H   0  0  0  0  0  0
   -2.1593   -3.5927   16.3356 H   0  0  0  0  0  0
    0.2172   -3.1927   16.4922 H   0  0  0  0  0  0
    2.0615   -2.0200   15.9158 H   0  0  0  0  0  0
    5.1966    1.9531   13.3104 H   0  0  0  0  0  0
    6.7738    0.9857   15.2436 H   0  0  0  0  0  0
    6.1785   -0.7631   17.3564 H   0  0  0  0  0  0
    4.5998    2.4011   11.2338 H   0  0  0  0  0  0
    3.8746    3.8427    9.4027 H   0  0  0  0  0  0
    1.9464    4.8061    8.1857 H   0  0  0  0  0  0
   -1.8485    4.8187    9.8614 H   0  0  0  0  0  0
   -0.7072    5.7514   10.8104 H   0  0  0  0  0  0
    0.5854    2.1867   12.8082 H   0  0  0  0  0  0
   -0.0793   -0.0297   13.5995 H   0  0  0  0  0  0
   -2.9553    1.1030   11.7383 H   0  0  0  0  0  0
   -1.7674    1.5205   12.9693 H   0  0  0  0  0  0
   -1.3930    0.2982   11.7282 H   0  0  0  0  0  0
  1  2  1  0  0  0
  1 32  1  0  0  0
  1 33  1  0  0  0
  1 34  1  0  0  0
  2  3  1  0  0  0
  3  4  2  0  0  0
  3 29  1  0  0  0
  4  5  1  0  0  0
  4 35  1  0  0  0
  5  6  2  0  0  0
  5 36  1  0  0  0
  6  7  1  0  0  0
  6 28  1  0  0  0
  7  8  1  0  0  0
  7 37  1  0  0  0
  8  9  2  0  0  0
  8 16  1  0  0  0
  9 10  1  0  0  0
 10 11  2  0  0  0
 10 17  1  0  0  0
 11 12  1  0  0  0
 11 38  1  0  0  0
 12 13  1  0  0  0
 12 16  1  0  0  0
 13 14  2  0  0  0
 13 39  1  0  0  0
 14 15  1  0  0  0
 14 40  1  0  0  0
 15 16  2  0  0  0
 17 18  2  0  0  0
 17 27  1  0  0  0
 18 19  1  0  0  0
 18 41  1  0  0  0
 19 20  2  0  0  0
 19 42  1  0  0  0
 20 21  1  0  0  0
 20 26  1  0  0  0
 21 22  1  0  0  0
 21 43  1  0  0  0
 22 23  2  0  0  0
 22 24  1  0  0  0
 24 25  1  0  0  0
 24 44  1  0  0  0
 24 45  1  0  0  0
 25 26  1  0  0  0
 26 27  2  0  0  0
 27 46  1  0  0  0
 28 29  2  0  0  0
 28 47  1  0  0  0
 29 30  1  0  0  0
 30 31  1  0  0  0
 31 48  1  0  0  0
 31 49  1  0  0  0
 31 50  1  0  0  0
M  END
> <s_m_entry_id>
1099

> <IC50[nM]>
33.4

> <s_m_Source_Path>
/projects/mai/users/kmzp800_harry/pmx_colab/docking_jobs/syk

> <s_m_Source_File>
tnks2_lig.sdf

> <i_m_Source_File_Index>
20

> <s_m_job_name>
glide-dock_SP_syk_mcs

> <r_i_docking_score>
-6.87108335027565

> <r_i_glide_gscore>
-6.87108335027565

> <r_i_glide_emodel>
-49.1772700536712

$$$$
CHEMBL3265008
                    3D
 Schrodinger Suite 2021-4.
 48 51  0  0  1  0            999 V2000
   -4.5281   -3.2211   15.5134 C   0  0  0  0  0  0
   -3.8812   -2.2878   14.6614 O   0  0  0  0  0  0
   -2.5267   -2.0989   14.8177 C   0  0  0  0  0  0
   -1.7306   -2.8541   15.7064 C   0  0  0  0  0  0
   -0.3575   -2.6007   15.8181 C   0  0  0  0  0  0
    0.2500   -1.5765   15.0722 C   0  0  0  0  0  0
    1.6206   -1.3592   15.2870 N   0  0  0  0  0  0
    2.5301   -0.4379   14.7282 C   0  0  0  0  0  0
    2.1924    0.3710   13.7530 N   0  0  0  0  0  0
    3.1209    1.2496   13.2288 C   0  0  0  0  0  0
    4.4238    1.2809   13.6729 C   0  0  0  0  0  0
    4.7581    0.4836   14.7194 N   0  0  0  0  0  0
    5.9051    0.3806   15.4821 C   0  0  0  0  0  0
    5.6030   -0.4954   16.4945 C   0  0  0  0  0  0
    4.3571   -1.0573   16.3251 N   0  0  0  0  0  0
    3.8309   -0.4126   15.2881 C   0  0  0  0  0  0
    2.6539    2.1651   12.1572 C   0  0  0  0  0  0
    3.5693    2.6667   11.1953 C   0  0  0  0  0  0
    3.1602    3.4912   10.1370 C   0  0  0  0  0  0
    1.8109    3.8543   10.0347 C   0  0  0  0  0  0
    1.4251    4.6407    9.0000 F   0  0  0  0  0  0
    0.8773    3.3982   11.0027 C   0  0  0  0  0  0
    1.2981    2.5492   12.0537 C   0  0  0  0  0  0
   -0.5718    3.7560   10.8912 C   0  0  0  0  0  0
   -1.4584    2.9839   11.2128 O   0  0  0  0  0  0
   -0.8558    4.9719   10.4411 N   0  0  0  0  0  0
   -0.5433   -0.8250   14.1799 C   0  0  0  0  0  0
   -1.9258   -1.0841   14.0420 C   0  0  0  0  0  0
   -2.7450   -0.3699   13.1953 O   0  0  0  0  0  0
   -2.1891    0.6551   12.3991 C   0  0  0  0  0  0
   -5.5900   -3.2498   15.2700 H   0  0  0  0  0  0
   -4.1340   -4.2297   15.3797 H   0  0  0  0  0  0
   -4.4372   -2.9334   16.5619 H   0  0  0  0  0  0
   -2.1473   -3.6318   16.3218 H   0  0  0  0  0  0
    0.2282   -3.1979   16.5011 H   0  0  0  0  0  0
    2.0725   -2.0242   15.9047 H   0  0  0  0  0  0
    5.1964    1.9394   13.2945 H   0  0  0  0  0  0
    6.7731    0.9802   15.2343 H   0  0  0  0  0  0
    6.1553   -0.7583   17.3553 H   0  0  0  0  0  0
    4.6118    2.4008   11.2415 H   0  0  0  0  0  0
    3.8805    3.8363    9.4101 H   0  0  0  0  0  0
    0.5888    2.1764   12.7833 H   0  0  0  0  0  0
   -1.8215    5.2459   10.3498 H   0  0  0  0  0  0
   -0.1024    5.5835   10.1608 H   0  0  0  0  0  0
   -0.0922   -0.0412   13.6013 H   0  0  0  0  0  0
   -2.9816    1.0982   11.7909 H   0  0  0  0  0  0
   -1.7702    1.4485   13.0221 H   0  0  0  0  0  0
   -1.4218    0.2914   11.7133 H   0  0  0  0  0  0
  1  2  1  0  0  0
  1 31  1  0  0  0
  1 32  1  0  0  0
  1 33  1  0  0  0
  2  3  1  0  0  0
  3  4  2  0  0  0
  3 28  1  0  0  0
  4  5  1  0  0  0
  4 34  1  0  0  0
  5  6  2  0  0  0
  5 35  1  0  0  0
  6  7  1  0  0  0
  6 27  1  0  0  0
  7  8  1  0  0  0
  7 36  1  0  0  0
  8  9  2  0  0  0
  8 16  1  0  0  0
  9 10  1  0  0  0
 10 11  2  0  0  0
 10 17  1  0  0  0
 11 12  1  0  0  0
 11 37  1  0  0  0
 12 13  1  0  0  0
 12 16  1  0  0  0
 13 14  2  0  0  0
 13 38  1  0  0  0
 14 15  1  0  0  0
 14 39  1  0  0  0
 15 16  2  0  0  0
 17 18  2  0  0  0
 17 23  1  0  0  0
 18 19  1  0  0  0
 18 40  1  0  0  0
 19 20  2  0  0  0
 19 41  1  0  0  0
 20 21  1  0  0  0
 20 22  1  0  0  0
 22 23  2  0  0  0
 22 24  1  0  0  0
 23 42  1  0  0  0
 24 25  2  0  0  0
 24 26  1  0  0  0
 26 43  1  0  0  0
 26 44  1  0  0  0
 27 28  2  0  0  0
 27 45  1  0  0  0
 28 29  1  0  0  0
 29 30  1  0  0  0
 30 46  1  0  0  0
 30 47  1  0  0  0
 30 48  1  0  0  0
M  END
> <s_m_entry_id>
1098

> <IC50[nM]>
67.3

> <s_m_Source_Path>
/projects/mai/users/kmzp800_harry/pmx_colab/docking_jobs/syk

> <s_m_Source_File>
tnks2_lig.sdf

> <i_m_Source_File_Index>
21

> <s_m_job_name>
glide-dock_SP_syk_mcs

> <r_i_docking_score>
-6.87304688734537

> <r_i_glide_gscore>
-6.87304688734537

> <r_i_glide_emodel>
-48.7664088401436

$$$$
CHEMBL3265019
                    3D
 Schrodinger Suite 2021-4.
 46 50  0  0  1  0            999 V2000
   -4.5233   -3.2230   15.4927 C   0  0  0  0  0  0
   -3.8806   -2.2541   14.6752 O   0  0  0  0  0  0
   -2.5251   -2.0669   14.8240 C   0  0  0  0  0  0
   -1.7358   -2.8246   15.7124 C   0  0  0  0  0  0
   -0.3631   -2.5857   15.8173 C   0  0  0  0  0  0
    0.2502   -1.5647   15.0746 C   0  0  0  0  0  0
    1.6205   -1.3525   15.2927 N   0  0  0  0  0  0
    2.5270   -0.4255   14.7290 C   0  0  0  0  0  0
    2.1889    0.3810   13.7578 N   0  0  0  0  0  0
    3.1151    1.2580   13.2236 C   0  0  0  0  0  0
    4.4152    1.2929   13.6831 C   0  0  0  0  0  0
    4.7513    0.4994   14.7325 N   0  0  0  0  0  0
    5.9037    0.3847   15.4845 C   0  0  0  0  0  0
    5.6182   -0.5019   16.4880 C   0  0  0  0  0  0
    4.3668   -1.0560   16.3315 N   0  0  0  0  0  0
    3.8315   -0.4079   15.3041 C   0  0  0  0  0  0
    2.6436    2.1644   12.1444 C   0  0  0  0  0  0
    3.5572    2.6626   11.1720 C   0  0  0  0  0  0
    3.1563    3.4894   10.1109 C   0  0  0  0  0  0
    1.7991    3.8540   10.0185 C   0  0  0  0  0  0
    1.1186    4.6261    9.0983 N   0  0  0  0  0  0
   -0.1312    4.6653    9.4474 N   0  0  0  0  0  0
   -0.2824    3.9494   10.5822 N   0  0  0  0  0  0
    0.8962    3.3851   11.0060 C   0  0  0  0  0  0
    1.2865    2.5507   12.0636 C   0  0  0  0  0  0
   -0.5341   -0.8079   14.1813 C   0  0  0  0  0  0
   -1.9176   -1.0548   14.0440 C   0  0  0  0  0  0
   -2.7316   -0.3161   13.2080 O   0  0  0  0  0  0
   -2.1782    0.7105   12.3905 C   0  0  0  0  0  0
   -5.5840   -3.2500   15.2448 H   0  0  0  0  0  0
   -4.4386   -2.9724   16.5513 H   0  0  0  0  0  0
   -4.1213   -4.2231   15.3240 H   0  0  0  0  0  0
   -2.1566   -3.5981   16.3286 H   0  0  0  0  0  0
    0.2201   -3.1962   16.4854 H   0  0  0  0  0  0
    2.0723   -2.0334   15.8968 H   0  0  0  0  0  0
    5.1962    1.9290   13.2840 H   0  0  0  0  0  0
    6.7737    0.9733   15.2257 H   0  0  0  0  0  0
    6.1938   -0.7838   17.3362 H   0  0  0  0  0  0
    4.5970    2.3946   11.2274 H   0  0  0  0  0  0
    3.8857    3.8298    9.3876 H   0  0  0  0  0  0
   -1.1867    3.8834   11.0172 H   0  0  0  0  0  0
    0.5726    2.1900   12.7956 H   0  0  0  0  0  0
   -0.0720   -0.0232   13.6133 H   0  0  0  0  0  0
   -2.9707    1.1215   11.7617 H   0  0  0  0  0  0
   -1.7791    1.5294   12.9889 H   0  0  0  0  0  0
   -1.4015    0.3292   11.7280 H   0  0  0  0  0  0
  1  2  1  0  0  0
  1 30  1  0  0  0
  1 31  1  0  0  0
  1 32  1  0  0  0
  2  3  1  0  0  0
  3  4  2  0  0  0
  3 27  1  0  0  0
  4  5  1  0  0  0
  4 33  1  0  0  0
  5  6  2  0  0  0
  5 34  1  0  0  0
  6  7  1  0  0  0
  6 26  1  0  0  0
  7  8  1  0  0  0
  7 35  1  0  0  0
  8  9  2  0  0  0
  8 16  1  0  0  0
  9 10  1  0  0  0
 10 11  2  0  0  0
 10 17  1  0  0  0
 11 12  1  0  0  0
 11 36  1  0  0  0
 12 13  1  0  0  0
 12 16  1  0  0  0
 13 14  2  0  0  0
 13 37  1  0  0  0
 14 15  1  0  0  0
 14 38  1  0  0  0
 15 16  2  0  0  0
 17 18  2  0  0  0
 17 25  1  0  0  0
 18 19  1  0  0  0
 18 39  1  0  0  0
 19 20  2  0  0  0
 19 40  1  0  0  0
 20 21  1  0  0  0
 20 24  1  0  0  0
 21 22  2  0  0  0
 22 23  1  0  0  0
 23 24  1  0  0  0
 23 41  1  0  0  0
 24 25  2  0  0  0
 25 42  1  0  0  0
 26 27  2  0  0  0
 26 43  1  0  0  0
 27 28  1  0  0  0
 28 29  1  0  0  0
 29 44  1  0  0  0
 29 45  1  0  0  0
 29 46  1  0  0  0
M  END
> <s_m_entry_id>
1113

> <IC50[nM]>
12.6

> <s_m_Source_Path>
/projects/mai/users/kmzp800_harry/pmx_colab/docking_jobs/syk

> <s_m_Source_File>
tnks2_lig.sdf

> <i_m_Source_File_Index>
22

> <s_m_job_name>
glide-dock_SP_syk_mcs

> <r_i_docking_score>
-6.66453696526732

> <r_i_glide_gscore>
-6.66453696526732

> <r_i_glide_emodel>
-46.0007942815269

$$$$
CHEMBL3265013
                    3D
 Schrodinger Suite 2021-4.
 51 54  0  0  1  0            999 V2000
   -4.5357   -3.2007   15.5241 C   0  0  0  0  0  0
   -3.8884   -2.2600   14.6803 O   0  0  0  0  0  0
   -2.5298   -2.0777   14.8249 C   0  0  0  0  0  0
   -1.7338   -2.8351   15.7104 C   0  0  0  0  0  0
   -0.3608   -2.5884   15.8173 C   0  0  0  0  0  0
    0.2506   -1.5708   15.0694 C   0  0  0  0  0  0
    1.6226   -1.3574   15.2874 N   0  0  0  0  0  0
    2.5349   -0.4383   14.7276 C   0  0  0  0  0  0
    2.1987    0.3634   13.7481 N   0  0  0  0  0  0
    3.1258    1.2471   13.2278 C   0  0  0  0  0  0
    4.4284    1.2858   13.6858 C   0  0  0  0  0  0
    4.7625    0.4899   14.7285 N   0  0  0  0  0  0
    5.9096    0.3865   15.4881 C   0  0  0  0  0  0
    5.6144   -0.4955   16.4996 C   0  0  0  0  0  0
    4.3704   -1.0621   16.3286 N   0  0  0  0  0  0
    3.8417   -0.4174   15.2971 C   0  0  0  0  0  0
    2.6559    2.1618   12.1576 C   0  0  0  0  0  0
    3.5648    2.6671   11.1927 C   0  0  0  0  0  0
    3.1558    3.4928   10.1413 C   0  0  0  0  0  0
    1.7990    3.8541   10.0464 C   0  0  0  0  0  0
    1.3630    4.7631    8.9366 C   0  0  0  0  0  0
    0.3594    4.5335    8.2658 O   0  0  0  0  0  0
    2.1348    5.8318    8.7285 N   0  0  0  0  0  0
    0.8726    3.3721   11.0169 C   0  0  0  0  0  0
   -0.6006    3.7289   10.9704 C   0  0  0  0  0  0
    1.3012    2.5414   12.0728 C   0  0  0  0  0  0
   -0.5388   -0.8184   14.1745 C   0  0  0  0  0  0
   -1.9235   -1.0674   14.0433 C   0  0  0  0  0  0
   -2.7426   -0.3345   13.2089 O   0  0  0  0  0  0
   -2.1846    0.6873   12.3919 C   0  0  0  0  0  0
   -5.5975   -3.2288   15.2831 H   0  0  0  0  0  0
   -4.1366   -4.2056   15.3791 H   0  0  0  0  0  0
   -4.4452   -2.9190   16.5760 H   0  0  0  0  0  0
   -2.1463   -3.6151   16.3246 H   0  0  0  0  0  0
    0.2188   -3.1968   16.4947 H   0  0  0  0  0  0
    2.0598   -2.0167   15.9241 H   0  0  0  0  0  0
    5.1986    1.9461   13.3087 H   0  0  0  0  0  0
    6.7670    0.9940   15.2472 H   0  0  0  0  0  0
    6.1789   -0.7505   17.3643 H   0  0  0  0  0  0
    4.6042    2.4028   11.2440 H   0  0  0  0  0  0
    3.8934    3.8390    9.4264 H   0  0  0  0  0  0
    1.8916    6.4862    7.9995 H   0  0  0  0  0  0
    2.9447    5.9860    9.3104 H   0  0  0  0  0  0
   -1.1616    3.2054   11.7432 H   0  0  0  0  0  0
   -0.7432    4.7986   11.1271 H   0  0  0  0  0  0
   -1.0319    3.4541   10.0074 H   0  0  0  0  0  0
    0.6045    2.1825   12.8241 H   0  0  0  0  0  0
   -0.0832   -0.0329   13.6060 H   0  0  0  0  0  0
   -2.9747    1.1127   11.7718 H   0  0  0  0  0  0
   -1.7735    1.4955   12.9958 H   0  0  0  0  0  0
   -1.4117    0.2989   11.7289 H   0  0  0  0  0  0
  1  2  1  0  0  0
  1 31  1  0  0  0
  1 32  1  0  0  0
  1 33  1  0  0  0
  2  3  1  0  0  0
  3  4  2  0  0  0
  3 28  1  0  0  0
  4  5  1  0  0  0
  4 34  1  0  0  0
  5  6  2  0  0  0
  5 35  1  0  0  0
  6  7  1  0  0  0
  6 27  1  0  0  0
  7  8  1  0  0  0
  7 36  1  0  0  0
  8  9  2  0  0  0
  8 16  1  0  0  0
  9 10  1  0  0  0
 10 11  2  0  0  0
 10 17  1  0  0  0
 11 12  1  0  0  0
 11 37  1  0  0  0
 12 13  1  0  0  0
 12 16  1  0  0  0
 13 14  2  0  0  0
 13 38  1  0  0  0
 14 15  1  0  0  0
 14 39  1  0  0  0
 15 16  2  0  0  0
 17 18  2  0  0  0
 17 26  1  0  0  0
 18 19  1  0  0  0
 18 40  1  0  0  0
 19 20  2  0  0  0
 19 41  1  0  0  0
 20 21  1  0  0  0
 20 24  1  0  0  0
 21 22  2  0  0  0
 21 23  1  0  0  0
 23 42  1  0  0  0
 23 43  1  0  0  0
 24 25  1  0  0  0
 24 26  2  0  0  0
 25 44  1  0  0  0
 25 45  1  0  0  0
 25 46  1  0  0  0
 26 47  1  0  0  0
 27 28  2  0  0  0
 27 48  1  0  0  0
 28 29  1  0  0  0
 29 30  1  0  0  0
 30 49  1  0  0  0
 30 50  1  0  0  0
 30 51  1  0  0  0
M  END
> <s_m_entry_id>
1105

> <IC50[nM]>
64.1

> <s_m_Source_Path>
/projects/mai/users/kmzp800_harry/pmx_colab/docking_jobs/syk

> <s_m_Source_File>
tnks2_lig.sdf

> <i_m_Source_File_Index>
23

> <s_m_job_name>
glide-dock_SP_syk_mcs

> <r_i_docking_score>
-6.76523171463397

> <r_i_glide_gscore>
-6.76523171463397

> <r_i_glide_emodel>
-46.6652580723127

$$$$
CHEMBL3265015
                    3D
 Schrodinger Suite 2021-4.
 51 54  0  0  1  0            999 V2000
   -4.2430   -2.9895   16.0582 C   0  0  0  0  0  0
   -3.6955   -2.1303   15.0674 O   0  0  0  0  0  0
   -2.3229   -1.9993   15.0129 C   0  0  0  0  0  0
   -1.4297   -2.7958   15.7714 C   0  0  0  0  0  0
   -0.0442   -2.5706   15.7045 C   0  0  0  0  0  0
    0.4889   -1.5611   14.8799 C   0  0  0  0  0  0
    1.8853   -1.3910   14.9188 N   0  0  0  0  0  0
    2.7381   -0.3961   14.4042 C   0  0  0  0  0  0
    2.3417    0.4122   13.4584 N   0  0  0  0  0  0
    3.1604    1.4466   13.0493 C   0  0  0  0  0  0
    4.4230    1.6324   13.5508 C   0  0  0  0  0  0
    4.8387    0.7926   14.5246 N   0  0  0  0  0  0
    6.0026    0.7716   15.2598 C   0  0  0  0  0  0
    5.8092   -0.1728   16.2263 C   0  0  0  0  0  0
    4.6005   -0.8344   16.0657 N   0  0  0  0  0  0
    4.0196   -0.2523   15.0174 C   0  0  0  0  0  0
    2.5925    2.3785   12.0491 C   0  0  0  0  0  0
    1.2746    2.8566   12.2261 C   0  0  0  0  0  0
    0.6744    3.7046   11.2779 C   0  0  0  0  0  0
    1.3935    4.1059   10.1325 C   0  0  0  0  0  0
    2.7223    3.6775    9.9668 C   0  0  0  0  0  0
    3.3112    2.8047   10.8978 C   0  0  0  0  0  0
    4.6965    2.2977   10.5688 C   0  0  0  0  0  0
    0.7655    5.0084    9.1152 C   0  0  0  0  0  0
    1.3860    5.9430    8.6174 O   0  0  0  0  0  0
   -0.4794    4.6942    8.7524 N   0  0  0  0  0  0
   -0.4020   -0.7937   14.0935 C   0  0  0  0  0  0
   -1.8041   -1.0047   14.1528 C   0  0  0  0  0  0
   -2.7167   -0.2694   13.4188 O   0  0  0  0  0  0
   -2.2187    0.6334   12.4397 C   0  0  0  0  0  0
   -5.3304   -2.9216   16.0329 H   0  0  0  0  0  0
   -3.9739   -4.0309   15.8767 H   0  0  0  0  0  0
   -3.9197   -2.7024   17.0602 H   0  0  0  0  0  0
   -1.7801   -3.5724   16.4352 H   0  0  0  0  0  0
    0.6104   -3.1776   16.3143 H   0  0  0  0  0  0
    2.3519   -1.9719   15.6032 H   0  0  0  0  0  0
    5.0823    2.4472   13.2736 H   0  0  0  0  0  0
    6.7955    1.4780   15.0612 H   0  0  0  0  0  0
    6.4495   -0.3960   17.0614 H   0  0  0  0  0  0
    0.7097    2.5594   13.0979 H   0  0  0  0  0  0
   -0.3362    4.0493   11.4424 H   0  0  0  0  0  0
    3.2761    3.9912    9.0929 H   0  0  0  0  0  0
    5.4543    2.9363   11.0191 H   0  0  0  0  0  0
    4.8368    1.2682   10.8950 H   0  0  0  0  0  0
    4.8301    2.3117    9.4882 H   0  0  0  0  0  0
   -0.9477    5.2404    8.0437 H   0  0  0  0  0  0
   -0.9346    3.8984    9.1708 H   0  0  0  0  0  0
   -0.0171   -0.0264   13.4485 H   0  0  0  0  0  0
   -3.0530    1.0582   11.8819 H   0  0  0  0  0  0
   -1.6757    1.4597   12.9009 H   0  0  0  0  0  0
   -1.5699    0.1297   11.7210 H   0  0  0  0  0  0
  1  2  1  0  0  0
  1 31  1  0  0  0
  1 32  1  0  0  0
  1 33  1  0  0  0
  2  3  1  0  0  0
  3  4  2  0  0  0
  3 28  1  0  0  0
  4  5  1  0  0  0
  4 34  1  0  0  0
  5  6  2  0  0  0
  5 35  1  0  0  0
  6  7  1  0  0  0
  6 27  1  0  0  0
  7  8  1  0  0  0
  7 36  1  0  0  0
  8  9  2  0  0  0
  8 16  1  0  0  0
  9 10  1  0  0  0
 10 11  2  0  0  0
 10 17  1  0  0  0
 11 12  1  0  0  0
 11 37  1  0  0  0
 12 13  1  0  0  0
 12 16  1  0  0  0
 13 14  2  0  0  0
 13 38  1  0  0  0
 14 15  1  0  0  0
 14 39  1  0  0  0
 15 16  2  0  0  0
 17 18  2  0  0  0
 17 22  1  0  0  0
 18 19  1  0  0  0
 18 40  1  0  0  0
 19 20  2  0  0  0
 19 41  1  0  0  0
 20 21  1  0  0  0
 20 24  1  0  0  0
 21 22  2  0  0  0
 21 42  1  0  0  0
 22 23  1  0  0  0
 23 43  1  0  0  0
 23 44  1  0  0  0
 23 45  1  0  0  0
 24 25  2  0  0  0
 24 26  1  0  0  0
 26 46  1  0  0  0
 26 47  1  0  0  0
 27 28  2  0  0  0
 27 48  1  0  0  0
 28 29  1  0  0  0
 29 30  1  0  0  0
 30 49  1  0  0  0
 30 50  1  0  0  0
 30 51  1  0  0  0
M  END
> <s_m_entry_id>
1084

> <IC50[nM]>
113

> <s_m_Source_Path>
/projects/mai/users/kmzp800_harry/pmx_colab/docking_jobs/syk

> <s_m_Source_File>
tnks2_lig.sdf

> <i_m_Source_File_Index>
24

> <s_m_job_name>
glide-dock_SP_syk_mcs

> <r_i_docking_score>
-7.56411910034123

> <r_i_glide_gscore>
-7.56411910034123

> <r_i_glide_emodel>
-64.146949899552

$$$$
CHEMBL3264996
                    3D
 Schrodinger Suite 2021-4.
 64 68  0  0  1  0            999 V2000
   -8.6950    6.0029   12.2798 C   0  0  0  0  0  0
   -7.3302    5.6445   12.1671 O   0  0  0  0  0  0
   -6.4046    6.2818   12.9127 C   0  0  0  0  0  0
   -6.6629    7.2077   13.6838 O   0  0  0  0  0  0
   -5.0334    5.7345   12.7105 C   0  0  0  0  0  0
   -3.9726    6.1124   13.5669 C   0  0  0  0  0  0
   -2.6723    5.5938   13.3674 C   0  0  0  0  0  0
   -2.4229    4.6876   12.3043 C   0  0  0  0  0  0
   -1.1180    4.1674   12.0823 N   0  0  0  0  0  0
   -0.5692    3.7640   10.9172 C   0  0  0  0  0  0
   -1.1372    3.7454    9.8263 O   0  0  0  0  0  0
    0.8725    3.3933   11.0172 C   0  0  0  0  0  0
    1.7944    3.8550   10.0458 C   0  0  0  0  0  0
    3.1475    3.5040   10.1331 C   0  0  0  0  0  0
    3.5472    2.6444   11.1687 C   0  0  0  0  0  0
    2.6393    2.1519   12.1432 C   0  0  0  0  0  0
    1.2886    2.5566   12.0715 C   0  0  0  0  0  0
    3.1183    1.2392   13.2125 C   0  0  0  0  0  0
    4.4169    1.2795   13.6742 C   0  0  0  0  0  0
    4.7546    0.4956   14.7222 N   0  0  0  0  0  0
    5.9045    0.3871   15.4878 C   0  0  0  0  0  0
    5.5995   -0.5092   16.4890 C   0  0  0  0  0  0
    4.3569   -1.0586   16.3250 N   0  0  0  0  0  0
    3.8260   -0.4140   15.2954 C   0  0  0  0  0  0
    2.5250   -0.4366   14.7279 C   0  0  0  0  0  0
    1.6048   -1.3400   15.3012 N   0  0  0  0  0  0
    0.2400   -1.5581   15.0733 C   0  0  0  0  0  0
   -0.3737   -2.5772   15.8174 C   0  0  0  0  0  0
   -1.7443   -2.8336   15.7016 C   0  0  0  0  0  0
   -2.5346   -2.0771   14.8120 C   0  0  0  0  0  0
   -3.8936   -2.2532   14.6752 O   0  0  0  0  0  0
   -4.5461   -3.1321   15.5825 C   0  0  0  0  0  0
   -1.9265   -1.0595   14.0352 C   0  0  0  0  0  0
   -2.7429   -0.3232   13.1988 O   0  0  0  0  0  0
   -2.1882    0.7234   12.4078 C   0  0  0  0  0  0
   -0.5451   -0.8035   14.1762 C   0  0  0  0  0  0
    2.1885    0.3674   13.7466 N   0  0  0  0  0  0
   -3.4852    4.3046   11.4614 C   0  0  0  0  0  0
   -4.7712    4.8281   11.6614 C   0  0  0  0  0  0
   -9.2882    5.3875   11.6066 H   0  0  0  0  0  0
   -8.8547    7.0474   12.0091 H   0  0  0  0  0  0
   -9.0693    5.8433   13.2915 H   0  0  0  0  0  0
   -4.1348    6.8034   14.3855 H   0  0  0  0  0  0
   -1.8718    5.9040   14.0287 H   0  0  0  0  0  0
   -0.4994    4.1460   12.8755 H   0  0  0  0  0  0
    1.4615    4.4866    9.2343 H   0  0  0  0  0  0
    3.8667    3.8774    9.4151 H   0  0  0  0  0  0
    4.5794    2.3519   11.2195 H   0  0  0  0  0  0
    0.5383    2.2171   12.7822 H   0  0  0  0  0  0
    5.1947    1.9339   13.2893 H   0  0  0  0  0  0
    6.7745    0.9799   15.2370 H   0  0  0  0  0  0
    6.1641   -0.7812   17.3505 H   0  0  0  0  0  0
    1.9917   -1.9061   16.0549 H   0  0  0  0  0  0
    0.2047   -3.1748   16.5031 H   0  0  0  0  0  0
   -2.1537   -3.6092   16.3218 H   0  0  0  0  0  0
   -5.6141   -3.1543   15.3726 H   0  0  0  0  0  0
   -4.1929   -4.1567   15.4836 H   0  0  0  0  0  0
   -4.4332   -2.8087   16.6179 H   0  0  0  0  0  0
   -2.9847    1.1803   11.8189 H   0  0  0  0  0  0
   -1.7540    1.5114   13.0224 H   0  0  0  0  0  0
   -1.4424    0.3407   11.7110 H   0  0  0  0  0  0
   -0.0903   -0.0194   13.5980 H   0  0  0  0  0  0
   -3.3269    3.6041   10.6512 H   0  0  0  0  0  0
   -5.5591    4.5153   10.9909 H   0  0  0  0  0  0
  1  2  1  0  0  0
  1 40  1  0  0  0
  1 41  1  0  0  0
  1 42  1  0  0  0
  2  3  1  0  0  0
  3  4  2  0  0  0
  3  5  1  0  0  0
  5  6  2  0  0  0
  5 39  1  0  0  0
  6  7  1  0  0  0
  6 43  1  0  0  0
  7  8  2  0  0  0
  7 44  1  0  0  0
  8  9  1  0  0  0
  8 38  1  0  0  0
  9 10  1  0  0  0
  9 45  1  0  0  0
 10 11  2  0  0  0
 10 12  1  0  0  0
 12 13  2  0  0  0
 12 17  1  0  0  0
 13 14  1  0  0  0
 13 46  1  0  0  0
 14 15  2  0  0  0
 14 47  1  0  0  0
 15 16  1  0  0  0
 15 48  1  0  0  0
 16 17  2  0  0  0
 16 18  1  0  0  0
 17 49  1  0  0  0
 18 19  2  0  0  0
 18 37  1  0  0  0
 19 20  1  0  0  0
 19 50  1  0  0  0
 20 21  1  0  0  0
 20 24  1  0  0  0
 21 22  2  0  0  0
 21 51  1  0  0  0
 22 23  1  0  0  0
 22 52  1  0  0  0
 23 24  2  0  0  0
 24 25  1  0  0  0
 25 26  1  0  0  0
 25 37  2  0  0  0
 26 27  1  0  0  0
 26 53  1  0  0  0
 27 28  2  0  0  0
 27 36  1  0  0  0
 28 29  1  0  0  0
 28 54  1  0  0  0
 29 30  2  0  0  0
 29 55  1  0  0  0
 30 31  1  0  0  0
 30 33  1  0  0  0
 31 32  1  0  0  0
 32 56  1  0  0  0
 32 57  1  0  0  0
 32 58  1  0  0  0
 33 34  1  0  0  0
 33 36  2  0  0  0
 34 35  1  0  0  0
 35 59  1  0  0  0
 35 60  1  0  0  0
 35 61  1  0  0  0
 36 62  1  0  0  0
 38 39  2  0  0  0
 38 63  1  0  0  0
 39 64  1  0  0  0
M  END
> <s_m_entry_id>
1089

> <IC50[nM]>
15.2

> <s_m_Source_Path>
/projects/mai/users/kmzp800_harry/pmx_colab/docking_jobs/syk

> <s_m_Source_File>
tnks2_lig.sdf

> <i_m_Source_File_Index>
25

> <s_m_job_name>
glide-dock_SP_syk_mcs

> <r_i_docking_score>
-7.40559477586462

> <r_i_glide_gscore>
-7.40559477586462

> <r_i_glide_emodel>
-65.6707891958114

$$$$
CHEMBL3265022
                    3D
 Schrodinger Suite 2021-4.
 50 54  0  0  1  0            999 V2000
   -4.5220   -3.2427   15.5079 C   0  0  0  0  0  0
   -3.8882   -2.2760   14.6828 O   0  0  0  0  0  0
   -2.5325   -2.0906   14.8248 C   0  0  0  0  0  0
   -1.7282   -2.8528   15.7055 C   0  0  0  0  0  0
   -0.3596   -2.6045   15.8172 C   0  0  0  0  0  0
    0.2495   -1.5806   15.0705 C   0  0  0  0  0  0
    1.6191   -1.3576   15.2869 N   0  0  0  0  0  0
    2.5284   -0.4366   14.7278 C   0  0  0  0  0  0
    2.1923    0.3764   13.7548 N   0  0  0  0  0  0
    3.1137    1.2594   13.2389 C   0  0  0  0  0  0
    4.4162    1.3115   13.6973 C   0  0  0  0  0  0
    4.7569    0.4979   14.7273 N   0  0  0  0  0  0
    5.9060    0.3954   15.4883 C   0  0  0  0  0  0
    5.6068   -0.4961   16.4927 C   0  0  0  0  0  0
    4.3682   -1.0598   16.3202 N   0  0  0  0  0  0
    3.8331   -0.4147   15.2871 C   0  0  0  0  0  0
    2.6401    2.1670   12.1634 C   0  0  0  0  0  0
    3.5569    2.6688   11.2017 C   0  0  0  0  0  0
    3.1426    3.4924   10.1407 C   0  0  0  0  0  0
    1.7918    3.8512   10.0239 C   0  0  0  0  0  0
    1.0054    4.6117    9.1172 C   0  0  0  0  0  0
   -0.2529    4.6464    9.4908 N   0  0  0  0  0  0
   -0.3325    3.9287   10.6411 N   0  0  0  0  0  0
   -1.6152    3.9045   11.3224 C   0  0  0  0  0  0
    0.8833    3.3886   11.0182 C   0  0  0  0  0  0
    1.2902    2.5550   12.0728 C   0  0  0  0  0  0
   -0.5472   -0.8308   14.1732 C   0  0  0  0  0  0
   -1.9342   -1.0791   14.0401 C   0  0  0  0  0  0
   -2.7512   -0.3507   13.1919 O   0  0  0  0  0  0
   -2.1729    0.6508   12.3668 C   0  0  0  0  0  0
   -5.5825   -3.2682   15.2914 H   0  0  0  0  0  0
   -4.1279   -4.2436   15.3220 H   0  0  0  0  0  0
   -4.4083   -3.0067   16.5700 H   0  0  0  0  0  0
   -2.1456   -3.6360   16.3151 H   0  0  0  0  0  0
    0.2243   -3.2081   16.4974 H   0  0  0  0  0  0
    2.0551   -1.9805   15.9594 H   0  0  0  0  0  0
    5.1809    1.9914   13.3363 H   0  0  0  0  0  0
    6.7637    1.0141   15.2677 H   0  0  0  0  0  0
    6.1566   -0.7398   17.3646 H   0  0  0  0  0  0
    4.6077    2.3998   11.2467 H   0  0  0  0  0  0
    3.8682    3.8422    9.4213 H   0  0  0  0  0  0
    1.3019    5.1424    8.2255 H   0  0  0  0  0  0
   -1.6648    3.0809   12.0124 H   0  0  0  0  0  0
   -1.7204    4.8224   11.9158 H   0  0  0  0  0  0
   -2.4327    3.8218   10.6026 H   0  0  0  0  0  0
    0.5823    2.2134   12.8125 H   0  0  0  0  0  0
   -0.0823   -0.0579   13.5934 H   0  0  0  0  0  0
   -2.9500    1.1457   11.7849 H   0  0  0  0  0  0
   -1.6679    1.3835   12.9890 H   0  0  0  0  0  0
   -1.4570    0.2276   11.6601 H   0  0  0  0  0  0
  1  2  1  0  0  0
  1 31  1  0  0  0
  1 32  1  0  0  0
  1 33  1  0  0  0
  2  3  1  0  0  0
  3  4  2  0  0  0
  3 28  1  0  0  0
  4  5  1  0  0  0
  4 34  1  0  0  0
  5  6  2  0  0  0
  5 35  1  0  0  0
  6  7  1  0  0  0
  6 27  1  0  0  0
  7  8  1  0  0  0
  7 36  1  0  0  0
  8  9  2  0  0  0
  8 16  1  0  0  0
  9 10  1  0  0  0
 10 11  2  0  0  0
 10 17  1  0  0  0
 11 12  1  0  0  0
 11 37  1  0  0  0
 12 13  1  0  0  0
 12 16  1  0  0  0
 13 14  2  0  0  0
 13 38  1  0  0  0
 14 15  1  0  0  0
 14 39  1  0  0  0
 15 16  2  0  0  0
 17 18  2  0  0  0
 17 26  1  0  0  0
 18 19  1  0  0  0
 18 40  1  0  0  0
 19 20  2  0  0  0
 19 41  1  0  0  0
 20 21  1  0  0  0
 20 25  1  0  0  0
 21 22  2  0  0  0
 21 42  1  0  0  0
 22 23  1  0  0  0
 23 24  1  0  0  0
 23 25  1  0  0  0
 24 43  1  0  0  0
 24 44  1  0  0  0
 24 45  1  0  0  0
 25 26  2  0  0  0
 26 46  1  0  0  0
 27 28  2  0  0  0
 27 47  1  0  0  0
 28 29  1  0  0  0
 29 30  1  0  0  0
 30 48  1  0  0  0
 30 49  1  0  0  0
 30 50  1  0  0  0
M  END
> <s_m_entry_id>
1101

> <IC50[nM]>
12.3

> <s_m_Source_Path>
/projects/mai/users/kmzp800_harry/pmx_colab/docking_jobs/syk

> <s_m_Source_File>
tnks2_lig.sdf

> <i_m_Source_File_Index>
26

> <s_m_job_name>
glide-dock_SP_syk_mcs

> <r_i_docking_score>
-6.837495562085

> <r_i_glide_gscore>
-6.837495562085

> <r_i_glide_emodel>
-48.1267908837617

$$$$
CHEMBL3264995
                    3D
 Schrodinger Suite 2021-4.
 60 64  0  0  1  0            999 V2000
   -4.5577   -3.1020   15.5783 C   0  0  0  0  0  0
   -3.8993   -2.2092   14.6895 O   0  0  0  0  0  0
   -2.5346   -2.0539   14.8235 C   0  0  0  0  0  0
   -1.7386   -2.8297   15.7012 C   0  0  0  0  0  0
   -0.3604   -2.5805   15.8169 C   0  0  0  0  0  0
    0.2520   -1.5592   15.0660 C   0  0  0  0  0  0
    1.6161   -1.3320   15.2967 N   0  0  0  0  0  0
    2.5334   -0.4324   14.7277 C   0  0  0  0  0  0
    2.2032    0.3730   13.7535 N   0  0  0  0  0  0
    3.1362    1.2481   13.2305 C   0  0  0  0  0  0
    4.4383    1.2900   13.6819 C   0  0  0  0  0  0
    4.7710    0.4839   14.7224 N   0  0  0  0  0  0
    5.9164    0.3885   15.4893 C   0  0  0  0  0  0
    5.6167   -0.4988   16.4924 C   0  0  0  0  0  0
    4.3684   -1.0631   16.3162 N   0  0  0  0  0  0
    3.8373   -0.4140   15.2863 C   0  0  0  0  0  0
    2.6567    2.1588   12.1565 C   0  0  0  0  0  0
    3.5692    2.6706   11.1916 C   0  0  0  0  0  0
    3.1388    3.4967   10.1389 C   0  0  0  0  0  0
    1.7836    3.8485   10.0456 C   0  0  0  0  0  0
    0.8636    3.3920   11.0132 C   0  0  0  0  0  0
    1.2980    2.5504   12.0644 C   0  0  0  0  0  0
   -0.5807    3.7388   10.8551 C   0  0  0  0  0  0
   -1.1408    3.5203    9.7799 O   0  0  0  0  0  0
   -1.1469    4.2876   11.9451 N   0  0  0  0  0  0
   -2.4380    4.8654   12.0923 C   0  0  0  0  0  0
   -3.3799    5.0107   11.0412 C   0  0  0  0  0  0
   -4.6057    5.6615   11.2683 C   0  0  0  0  0  0
   -4.9120    6.1805   12.5455 C   0  0  0  0  0  0
   -3.9888    6.0058   13.6011 C   0  0  0  0  0  0
   -2.7574    5.3657   13.3711 C   0  0  0  0  0  0
   -6.1863    6.9398   12.7669 C   0  0  0  0  0  0
   -7.0790    6.9049   11.8914 O   0  0  0  0  0  0
   -6.3029    7.6055   13.8170 O   0  5  0  0  0  0
   -0.5382   -0.8094   14.1676 C   0  0  0  0  0  0
   -1.9222   -1.0497   14.0394 C   0  0  0  0  0  0
   -2.7379   -0.3196   13.2028 O   0  0  0  0  0  0
   -2.1528    0.6648   12.3600 C   0  0  0  0  0  0
   -5.6321   -3.0597   15.3977 H   0  0  0  0  0  0
   -4.2346   -4.1336   15.4262 H   0  0  0  0  0  0
   -4.3944   -2.8224   16.6206 H   0  0  0  0  0  0
   -2.1586   -3.6126   16.3156 H   0  0  0  0  0  0
    0.2235   -3.1669   16.5141 H   0  0  0  0  0  0
    2.0284   -1.9055   16.0228 H   0  0  0  0  0  0
    5.1959    1.9812   13.3309 H   0  0  0  0  0  0
    6.7739    1.0126   15.2857 H   0  0  0  0  0  0
    6.1357   -0.7795   17.3855 H   0  0  0  0  0  0
    4.6110    2.3900   11.2235 H   0  0  0  0  0  0
    3.8416    3.8530    9.4020 H   0  0  0  0  0  0
    1.4516    4.4648    9.2212 H   0  0  0  0  0  0
    0.5806    2.1897   12.7863 H   0  0  0  0  0  0
   -0.5442    4.3808   12.7481 H   0  0  0  0  0  0
   -3.1867    4.6618   10.0391 H   0  0  0  0  0  0
   -5.2992    5.7871   10.4467 H   0  0  0  0  0  0
   -4.2115    6.3868   14.5890 H   0  0  0  0  0  0
   -2.0537    5.2512   14.1850 H   0  0  0  0  0  0
   -0.1038   -0.0272   13.5792 H   0  0  0  0  0  0
   -2.9232    1.1123   11.7314 H   0  0  0  0  0  0
   -1.7026    1.4665   12.9448 H   0  0  0  0  0  0
   -1.3983    0.2325   11.7001 H   0  0  0  0  0  0
  1  2  1  0  0  0
  1 39  1  0  0  0
  1 40  1  0  0  0
  1 41  1  0  0  0
  2  3  1  0  0  0
  3  4  2  0  0  0
  3 36  1  0  0  0
  4  5  1  0  0  0
  4 42  1  0  0  0
  5  6  2  0  0  0
  5 43  1  0  0  0
  6  7  1  0  0  0
  6 35  1  0  0  0
  7  8  1  0  0  0
  7 44  1  0  0  0
  8  9  2  0  0  0
  8 16  1  0  0  0
  9 10  1  0  0  0
 10 11  2  0  0  0
 10 17  1  0  0  0
 11 12  1  0  0  0
 11 45  1  0  0  0
 12 13  1  0  0  0
 12 16  1  0  0  0
 13 14  2  0  0  0
 13 46  1  0  0  0
 14 15  1  0  0  0
 14 47  1  0  0  0
 15 16  2  0  0  0
 17 18  2  0  0  0
 17 22  1  0  0  0
 18 19  1  0  0  0
 18 48  1  0  0  0
 19 20  2  0  0  0
 19 49  1  0  0  0
 20 21  1  0  0  0
 20 50  1  0  0  0
 21 22  2  0  0  0
 21 23  1  0  0  0
 22 51  1  0  0  0
 23 24  2  0  0  0
 23 25  1  0  0  0
 25 26  1  0  0  0
 25 52  1  0  0  0
 26 27  2  0  0  0
 26 31  1  0  0  0
 27 28  1  0  0  0
 27 53  1  0  0  0
 28 29  2  0  0  0
 28 54  1  0  0  0
 29 30  1  0  0  0
 29 32  1  0  0  0
 30 31  2  0  0  0
 30 55  1  0  0  0
 31 56  1  0  0  0
 32 33  2  0  0  0
 32 34  1  0  0  0
 35 36  2  0  0  0
 35 57  1  0  0  0
 36 37  1  0  0  0
 37 38  1  0  0  0
 38 58  1  0  0  0
 38 59  1  0  0  0
 38 60  1  0  0  0
M  CHG  1  34  -1
M  END
> <s_m_entry_id>
1082

> <IC50[nM]>
0.84

> <s_m_Source_Path>
/projects/mai/users/kmzp800_harry/pmx_colab/docking_jobs/syk

> <s_m_Source_File>
tnks2_lig.sdf

> <i_m_Source_File_Index>
27

> <s_m_job_name>
glide-dock_SP_syk_mcs

> <r_i_docking_score>
-8.02940991931165

> <r_i_glide_gscore>
-8.02940991931165

> <r_i_glide_emodel>
-76.2254585240774

$$$$
CHEMBL3265001
                    3D
 Schrodinger Suite 2021-4.
 62 67  0  0  1  0            999 V2000
   -4.5835   -2.9554   15.6946 C   0  0  0  0  0  0
   -3.8948   -2.2294   14.6852 O   0  0  0  0  0  0
   -2.5348   -2.0540   14.8239 C   0  0  0  0  0  0
   -1.7433   -2.8137   15.7127 C   0  0  0  0  0  0
   -0.3670   -2.5800   15.8166 C   0  0  0  0  0  0
    0.2486   -1.5609   15.0702 C   0  0  0  0  0  0
    1.6167   -1.3416   15.2970 N   0  0  0  0  0  0
    2.5319   -0.4332   14.7285 C   0  0  0  0  0  0
    2.1986    0.3745   13.7585 N   0  0  0  0  0  0
    3.1257    1.2537   13.2331 C   0  0  0  0  0  0
    4.4271    1.2859   13.6838 C   0  0  0  0  0  0
    4.7619    0.4853   14.7269 N   0  0  0  0  0  0
    5.9120    0.3823   15.4838 C   0  0  0  0  0  0
    5.6156   -0.5000   16.4936 C   0  0  0  0  0  0
    4.3686   -1.0593   16.3274 N   0  0  0  0  0  0
    3.8357   -0.4163   15.2950 C   0  0  0  0  0  0
    2.6523    2.1628   12.1551 C   0  0  0  0  0  0
    3.5623    2.6731   11.1920 C   0  0  0  0  0  0
    3.1479    3.4980   10.1352 C   0  0  0  0  0  0
    1.7926    3.8535   10.0413 C   0  0  0  0  0  0
    0.8767    3.3902   11.0167 C   0  0  0  0  0  0
    1.2957    2.5458   12.0669 C   0  0  0  0  0  0
   -0.5590    3.7811   10.9483 C   0  0  0  0  0  0
   -1.2694    3.3411   10.0437 O   0  0  0  0  0  0
   -0.9541    4.5757   11.9651 N   0  0  0  0  0  0
   -2.2502    5.1100   12.2077 C   0  0  0  0  0  0
   -3.1776    5.2476   11.1579 C   0  0  0  0  0  0
   -4.4666    5.7488   11.3978 C   0  0  0  0  0  0
   -4.8722    6.1302   12.6942 C   0  0  0  0  0  0
   -3.9399    6.0040   13.7470 C   0  0  0  0  0  0
   -2.6355    5.5186   13.5060 C   0  0  0  0  0  0
   -6.2363    6.6372   12.9344 C   0  0  0  0  0  0
   -7.3260    5.8785   12.7549 N   0  5  0  0  0  0
   -8.3221    6.7197   13.0788 N   0  0  0  0  0  0
   -7.8172    7.9193   13.4192 N   0  0  0  0  0  0
   -6.4755    7.8918   13.3410 N   0  0  0  0  0  0
   -0.5371   -0.8096   14.1702 C   0  0  0  0  0  0
   -1.9230   -1.0544   14.0359 C   0  0  0  0  0  0
   -2.7385   -0.3206   13.1953 O   0  0  0  0  0  0
   -2.1819    0.7116   12.3865 C   0  0  0  0  0  0
   -5.6406   -3.0124   15.4344 H   0  0  0  0  0  0
   -4.2174   -3.9780   15.7854 H   0  0  0  0  0  0
   -4.5094   -2.4567   16.6631 H   0  0  0  0  0  0
   -2.1653   -3.5820   16.3369 H   0  0  0  0  0  0
    0.2082   -3.1820   16.5039 H   0  0  0  0  0  0
    2.0227   -1.8906   16.0479 H   0  0  0  0  0  0
    5.2012    1.9378   13.3024 H   0  0  0  0  0  0
    6.7779    0.9811   15.2456 H   0  0  0  0  0  0
    6.1796   -0.7691   17.3543 H   0  0  0  0  0  0
    4.6077    2.4187   11.2427 H   0  0  0  0  0  0
    3.8752    3.8582    9.4216 H   0  0  0  0  0  0
    1.4709    4.4885    9.2277 H   0  0  0  0  0  0
    0.5922    2.1813   12.8034 H   0  0  0  0  0  0
   -0.2353    4.8228   12.6277 H   0  0  0  0  0  0
   -2.9093    4.9709   10.1510 H   0  0  0  0  0  0
   -5.1488    5.8359   10.5668 H   0  0  0  0  0  0
   -4.2239    6.2821   14.7515 H   0  0  0  0  0  0
   -1.9647    5.4183   14.3500 H   0  0  0  0  0  0
   -0.0745   -0.0364   13.5894 H   0  0  0  0  0  0
   -2.9771    1.1615   11.7900 H   0  0  0  0  0  0
   -1.7392    1.5064   12.9874 H   0  0  0  0  0  0
   -1.4363    0.3215   11.6928 H   0  0  0  0  0  0
  1  2  1  0  0  0
  1 41  1  0  0  0
  1 42  1  0  0  0
  1 43  1  0  0  0
  2  3  1  0  0  0
  3  4  2  0  0  0
  3 38  1  0  0  0
  4  5  1  0  0  0
  4 44  1  0  0  0
  5  6  2  0  0  0
  5 45  1  0  0  0
  6  7  1  0  0  0
  6 37  1  0  0  0
  7  8  1  0  0  0
  7 46  1  0  0  0
  8  9  2  0  0  0
  8 16  1  0  0  0
  9 10  1  0  0  0
 10 11  2  0  0  0
 10 17  1  0  0  0
 11 12  1  0  0  0
 11 47  1  0  0  0
 12 13  1  0  0  0
 12 16  1  0  0  0
 13 14  2  0  0  0
 13 48  1  0  0  0
 14 15  1  0  0  0
 14 49  1  0  0  0
 15 16  2  0  0  0
 17 18  2  0  0  0
 17 22  1  0  0  0
 18 19  1  0  0  0
 18 50  1  0  0  0
 19 20  2  0  0  0
 19 51  1  0  0  0
 20 21  1  0  0  0
 20 52  1  0  0  0
 21 22  2  0  0  0
 21 23  1  0  0  0
 22 53  1  0  0  0
 23 24  2  0  0  0
 23 25  1  0  0  0
 25 26  1  0  0  0
 25 54  1  0  0  0
 26 27  2  0  0  0
 26 31  1  0  0  0
 27 28  1  0  0  0
 27 55  1  0  0  0
 28 29  2  0  0  0
 28 56  1  0  0  0
 29 30  1  0  0  0
 29 32  1  0  0  0
 30 31  2  0  0  0
 30 57  1  0  0  0
 31 58  1  0  0  0
 32 36  2  0  0  0
 32 33  1  0  0  0
 33 34  1  0  0  0
 34 35  2  0  0  0
 35 36  1  0  0  0
 37 38  2  0  0  0
 37 59  1  0  0  0
 38 39  1  0  0  0
 39 40  1  0  0  0
 40 60  1  0  0  0
 40 61  1  0  0  0
 40 62  1  0  0  0
M  CHG  1  33  -1
M  END
> <s_m_entry_id>
1080

> <IC50[nM]>
1.5

> <s_m_Source_Path>
/projects/mai/users/kmzp800_harry/pmx_colab/docking_jobs/syk

> <s_m_Source_File>
tnks2_lig.sdf

> <i_m_Source_File_Index>
28

> <s_m_job_name>
glide-dock_SP_syk_mcs

> <r_i_docking_score>
-8.28799214844967

> <r_i_glide_gscore>
-8.28799214844967

> <r_i_glide_emodel>
-78.7265844057831

$$$$
CHEMBL3264999
                    3D
 Schrodinger Suite 2021-4.
 62 66  0  0  1  0            999 V2000
   -4.5197   -3.2765   15.4399 C   0  0  0  0  0  0
   -3.8911   -2.2678   14.6597 O   0  0  0  0  0  0
   -2.5352   -2.0761   14.8141 C   0  0  0  0  0  0
   -1.7402   -2.8345   15.7036 C   0  0  0  0  0  0
   -0.3663   -2.5838   15.8172 C   0  0  0  0  0  0
    0.2450   -1.5608   15.0709 C   0  0  0  0  0  0
    1.6115   -1.3371   15.2961 N   0  0  0  0  0  0
    2.5291   -0.4357   14.7287 C   0  0  0  0  0  0
    2.1997    0.3678   13.7489 N   0  0  0  0  0  0
    3.1279    1.2498   13.2299 C   0  0  0  0  0  0
    4.4279    1.2849   13.6818 C   0  0  0  0  0  0
    4.7591    0.4829   14.7231 N   0  0  0  0  0  0
    5.9046    0.3810   15.4833 C   0  0  0  0  0  0
    5.6008   -0.4945   16.4967 C   0  0  0  0  0  0
    4.3621   -1.0648   16.3210 N   0  0  0  0  0  0
    3.8318   -0.4160   15.2906 C   0  0  0  0  0  0
    2.6534    2.1638   12.1563 C   0  0  0  0  0  0
    3.5667    2.6700   11.1948 C   0  0  0  0  0  0
    3.1526    3.4943   10.1368 C   0  0  0  0  0  0
    1.7965    3.8473   10.0430 C   0  0  0  0  0  0
    0.8790    3.3906   11.0216 C   0  0  0  0  0  0
    1.2987    2.5471   12.0728 C   0  0  0  0  0  0
   -0.5576    3.7690   10.9350 C   0  0  0  0  0  0
   -1.2481    3.3530   10.0034 O   0  0  0  0  0  0
   -0.9797    4.5414   11.9562 N   0  0  0  0  0  0
   -2.2706    5.0974   12.1576 C   0  0  0  0  0  0
   -3.1560    5.2768   11.0767 C   0  0  0  0  0  0
   -4.4234    5.8451   11.2733 C   0  0  0  0  0  0
   -4.8347    6.2463   12.5602 C   0  0  0  0  0  0
   -3.9546    6.0721   13.6483 C   0  0  0  0  0  0
   -2.6703    5.5243   13.4436 C   0  0  0  0  0  0
   -6.1831    6.8648   12.7593 C   0  0  0  0  0  0
   -6.3323    7.8914   13.4170 O   0  0  0  0  0  0
   -7.2048    6.2091   12.2102 N   0  0  0  0  0  0
   -0.5450   -0.8116   14.1755 C   0  0  0  0  0  0
   -1.9308   -1.0586   14.0391 C   0  0  0  0  0  0
   -2.7484   -0.3333   13.1956 O   0  0  0  0  0  0
   -2.1854    0.6949   12.3871 C   0  0  0  0  0  0
   -5.5840   -3.2974   15.2061 H   0  0  0  0  0  0
   -4.1166   -4.2662   15.2182 H   0  0  0  0  0  0
   -4.4208   -3.0779   16.5086 H   0  0  0  0  0  0
   -2.1573   -3.6126   16.3219 H   0  0  0  0  0  0
    0.2144   -3.1811   16.5026 H   0  0  0  0  0  0
    2.0071   -1.8413   16.0817 H   0  0  0  0  0  0
    5.1977    1.9519   13.3126 H   0  0  0  0  0  0
    6.7695    0.9859   15.2478 H   0  0  0  0  0  0
    6.1584   -0.7530   17.3667 H   0  0  0  0  0  0
    4.6059    2.3923   11.2331 H   0  0  0  0  0  0
    3.8748    3.8322    9.4038 H   0  0  0  0  0  0
    1.4705    4.4736    9.2240 H   0  0  0  0  0  0
    0.6000    2.1759   12.8105 H   0  0  0  0  0  0
   -0.2783    4.7877   12.6376 H   0  0  0  0  0  0
   -2.8646    4.9919   10.0793 H   0  0  0  0  0  0
   -5.0741    5.9782   10.4231 H   0  0  0  0  0  0
   -4.2443    6.3772   14.6446 H   0  0  0  0  0  0
   -2.0124    5.4187   14.2966 H   0  0  0  0  0  0
   -8.1423    6.5621   12.3260 H   0  0  0  0  0  0
   -7.0346    5.3593   11.6938 H   0  0  0  0  0  0
   -0.0837   -0.0355   13.5963 H   0  0  0  0  0  0
   -2.9737    1.1409   11.7797 H   0  0  0  0  0  0
   -1.7540    1.4894   12.9961 H   0  0  0  0  0  0
   -1.4291    0.3063   11.7047 H   0  0  0  0  0  0
  1  2  1  0  0  0
  1 39  1  0  0  0
  1 40  1  0  0  0
  1 41  1  0  0  0
  2  3  1  0  0  0
  3  4  2  0  0  0
  3 36  1  0  0  0
  4  5  1  0  0  0
  4 42  1  0  0  0
  5  6  2  0  0  0
  5 43  1  0  0  0
  6  7  1  0  0  0
  6 35  1  0  0  0
  7  8  1  0  0  0
  7 44  1  0  0  0
  8  9  2  0  0  0
  8 16  1  0  0  0
  9 10  1  0  0  0
 10 11  2  0  0  0
 10 17  1  0  0  0
 11 12  1  0  0  0
 11 45  1  0  0  0
 12 13  1  0  0  0
 12 16  1  0  0  0
 13 14  2  0  0  0
 13 46  1  0  0  0
 14 15  1  0  0  0
 14 47  1  0  0  0
 15 16  2  0  0  0
 17 18  2  0  0  0
 17 22  1  0  0  0
 18 19  1  0  0  0
 18 48  1  0  0  0
 19 20  2  0  0  0
 19 49  1  0  0  0
 20 21  1  0  0  0
 20 50  1  0  0  0
 21 22  2  0  0  0
 21 23  1  0  0  0
 22 51  1  0  0  0
 23 24  2  0  0  0
 23 25  1  0  0  0
 25 26  1  0  0  0
 25 52  1  0  0  0
 26 27  2  0  0  0
 26 31  1  0  0  0
 27 28  1  0  0  0
 27 53  1  0  0  0
 28 29  2  0  0  0
 28 54  1  0  0  0
 29 30  1  0  0  0
 29 32  1  0  0  0
 30 31  2  0  0  0
 30 55  1  0  0  0
 31 56  1  0  0  0
 32 33  2  0  0  0
 32 34  1  0  0  0
 34 57  1  0  0  0
 34 58  1  0  0  0
 35 36  2  0  0  0
 35 59  1  0  0  0
 36 37  1  0  0  0
 37 38  1  0  0  0
 38 60  1  0  0  0
 38 61  1  0  0  0
 38 62  1  0  0  0
M  END
> <s_m_entry_id>
1083

> <IC50[nM]>
4.3

> <s_m_Source_Path>
/projects/mai/users/kmzp800_harry/pmx_colab/docking_jobs/syk

> <s_m_Source_File>
tnks2_lig.sdf

> <i_m_Source_File_Index>
29

> <s_m_job_name>
glide-dock_SP_syk_mcs

> <r_i_docking_score>
-7.7321810698811

> <r_i_glide_gscore>
-7.7321810698811

> <r_i_glide_emodel>
-68.3788838670745

$$$$
CHEMBL3265017
                    3D
 Schrodinger Suite 2021-4.
 47 51  0  0  1  0            999 V2000
   -4.5244   -3.2192   15.4945 C   0  0  0  0  0  0
   -3.8815   -2.2522   14.6748 O   0  0  0  0  0  0
   -2.5261   -2.0664   14.8239 C   0  0  0  0  0  0
   -1.7364   -2.8246   15.7121 C   0  0  0  0  0  0
   -0.3629   -2.5867   15.8174 C   0  0  0  0  0  0
    0.2506   -1.5662   15.0739 C   0  0  0  0  0  0
    1.6211   -1.3568   15.2913 N   0  0  0  0  0  0
    2.5295   -0.4306   14.7279 C   0  0  0  0  0  0
    2.1914    0.3748   13.7579 N   0  0  0  0  0  0
    3.1188    1.2530   13.2259 C   0  0  0  0  0  0
    4.4185    1.2877   13.6849 C   0  0  0  0  0  0
    4.7536    0.4959   14.7329 N   0  0  0  0  0  0
    5.9053    0.3845   15.4866 C   0  0  0  0  0  0
    5.6190   -0.4991   16.4942 C   0  0  0  0  0  0
    4.3673   -1.0539   16.3351 N   0  0  0  0  0  0
    3.8337   -0.4105   15.3045 C   0  0  0  0  0  0
    2.6476    2.1609   12.1494 C   0  0  0  0  0  0
    3.5592    2.6600   11.1775 C   0  0  0  0  0  0
    3.1551    3.4873   10.1195 C   0  0  0  0  0  0
    1.7997    3.8569   10.0198 C   0  0  0  0  0  0
    0.9989    4.6340    9.1335 C   0  0  0  0  0  0
   -0.2552    4.6540    9.5196 N   0  0  0  0  0  0
   -0.3208    3.9139   10.6483 N   0  0  0  0  0  0
    0.8942    3.3820   11.0170 C   0  0  0  0  0  0
    1.2928    2.5474   12.0686 C   0  0  0  0  0  0
   -0.5343   -0.8085   14.1810 C   0  0  0  0  0  0
   -1.9187   -1.0541   14.0443 C   0  0  0  0  0  0
   -2.7328   -0.3166   13.2071 O   0  0  0  0  0  0
   -2.1771    0.7099   12.3917 C   0  0  0  0  0  0
   -5.5853   -3.2453   15.2486 H   0  0  0  0  0  0
   -4.4387   -2.9687   16.5529 H   0  0  0  0  0  0
   -4.1249   -4.2204   15.3272 H   0  0  0  0  0  0
   -2.1579   -3.5965   16.3301 H   0  0  0  0  0  0
    0.2198   -3.1960   16.4881 H   0  0  0  0  0  0
    2.0706   -2.0324   15.9013 H   0  0  0  0  0  0
    5.1967    1.9289   13.2869 H   0  0  0  0  0  0
    6.7766    0.9750   15.2300 H   0  0  0  0  0  0
    6.1919   -0.7839   17.3422 H   0  0  0  0  0  0
    4.5998    2.3905   11.2297 H   0  0  0  0  0  0
    3.8854    3.8276    9.3967 H   0  0  0  0  0  0
    1.2968    5.1675    8.2413 H   0  0  0  0  0  0
   -1.2037    3.8026   11.1260 H   0  0  0  0  0  0
    0.5797    2.1853   12.7998 H   0  0  0  0  0  0
   -0.0730   -0.0251   13.6104 H   0  0  0  0  0  0
   -2.9685    1.1228   11.7635 H   0  0  0  0  0  0
   -1.7767    1.5279   12.9911 H   0  0  0  0  0  0
   -1.4006    0.3285   11.7285 H   0  0  0  0  0  0
  1  2  1  0  0  0
  1 30  1  0  0  0
  1 31  1  0  0  0
  1 32  1  0  0  0
  2  3  1  0  0  0
  3  4  2  0  0  0
  3 27  1  0  0  0
  4  5  1  0  0  0
  4 33  1  0  0  0
  5  6  2  0  0  0
  5 34  1  0  0  0
  6  7  1  0  0  0
  6 26  1  0  0  0
  7  8  1  0  0  0
  7 35  1  0  0  0
  8  9  2  0  0  0
  8 16  1  0  0  0
  9 10  1  0  0  0
 10 11  2  0  0  0
 10 17  1  0  0  0
 11 12  1  0  0  0
 11 36  1  0  0  0
 12 13  1  0  0  0
 12 16  1  0  0  0
 13 14  2  0  0  0
 13 37  1  0  0  0
 14 15  1  0  0  0
 14 38  1  0  0  0
 15 16  2  0  0  0
 17 18  2  0  0  0
 17 25  1  0  0  0
 18 19  1  0  0  0
 18 39  1  0  0  0
 19 20  2  0  0  0
 19 40  1  0  0  0
 20 21  1  0  0  0
 20 24  1  0  0  0
 21 22  2  0  0  0
 21 41  1  0  0  0
 22 23  1  0  0  0
 23 24  1  0  0  0
 23 42  1  0  0  0
 24 25  2  0  0  0
 25 43  1  0  0  0
 26 27  2  0  0  0
 26 44  1  0  0  0
 27 28  1  0  0  0
 28 29  1  0  0  0
 29 45  1  0  0  0
 29 46  1  0  0  0
 29 47  1  0  0  0
M  END
> <s_m_entry_id>
1108

> <IC50[nM]>
3.8

> <s_m_Source_Path>
/projects/mai/users/kmzp800_harry/pmx_colab/docking_jobs/syk

> <s_m_Source_File>
tnks2_lig.sdf

> <i_m_Source_File_Index>
31

> <s_m_job_name>
glide-dock_SP_syk_mcs

> <r_i_docking_score>
-6.73187192295282

> <r_i_glide_gscore>
-6.73187192295282

> <r_i_glide_emodel>
-45.329275719932

$$$$
CHEMBL3265009
                    3D
 Schrodinger Suite 2021-4.
 51 54  0  0  1  0            999 V2000
   -4.5789   -3.0021   15.6662 C   0  0  0  0  0  0
   -3.8882   -2.2584   14.6723 O   0  0  0  0  0  0
   -2.5319   -2.0728   14.8221 C   0  0  0  0  0  0
   -1.7409   -2.8316   15.7121 C   0  0  0  0  0  0
   -0.3656   -2.5911   15.8173 C   0  0  0  0  0  0
    0.2478   -1.5712   15.0714 C   0  0  0  0  0  0
    1.6177   -1.3588   15.2907 N   0  0  0  0  0  0
    2.5291   -0.4400   14.7290 C   0  0  0  0  0  0
    2.1923    0.3693   13.7545 N   0  0  0  0  0  0
    3.1178    1.2498   13.2297 C   0  0  0  0  0  0
    4.4185    1.2861   13.6803 C   0  0  0  0  0  0
    4.7542    0.4900   14.7272 N   0  0  0  0  0  0
    5.9035    0.3881   15.4829 C   0  0  0  0  0  0
    5.6078   -0.4948   16.4965 C   0  0  0  0  0  0
    4.3642   -1.0567   16.3306 N   0  0  0  0  0  0
    3.8309   -0.4153   15.2946 C   0  0  0  0  0  0
    2.6484    2.1629   12.1580 C   0  0  0  0  0  0
    3.5562    2.6620   11.1893 C   0  0  0  0  0  0
    3.1464    3.4901   10.1364 C   0  0  0  0  0  0
    1.7926    3.8558   10.0392 C   0  0  0  0  0  0
    1.3824    4.7547    8.8839 C   0  0  0  0  0  0
    0.8627    3.3817   11.0161 C   0  0  0  0  0  0
    1.2929    2.5461   12.0706 C   0  0  0  0  0  0
   -0.5962    3.7119   10.9586 C   0  0  0  0  0  0
   -1.2336    3.9973   11.9684 O   0  0  0  0  0  0
   -1.1698    3.6035    9.7620 N   0  0  0  0  0  0
   -0.5403   -0.8163   14.1774 C   0  0  0  0  0  0
   -1.9245   -1.0639   14.0397 C   0  0  0  0  0  0
   -2.7412   -0.3341   13.1985 O   0  0  0  0  0  0
   -2.1816    0.6974   12.3922 C   0  0  0  0  0  0
   -5.6339   -3.0561   15.3984 H   0  0  0  0  0  0
   -4.2103   -4.0246   15.7421 H   0  0  0  0  0  0
   -4.5106   -2.5177   16.6416 H   0  0  0  0  0  0
   -2.1603   -3.6059   16.3307 H   0  0  0  0  0  0
    0.2163   -3.1959   16.4948 H   0  0  0  0  0  0
    2.0635   -2.0349   15.9008 H   0  0  0  0  0  0
    5.1883    1.9443   13.2984 H   0  0  0  0  0  0
    6.7699    0.9841   15.2327 H   0  0  0  0  0  0
    6.1778   -0.7580   17.3549 H   0  0  0  0  0  0
    4.5946    2.3852   11.2279 H   0  0  0  0  0  0
    3.8808    3.8271    9.4150 H   0  0  0  0  0  0
    2.2473    5.1629    8.3638 H   0  0  0  0  0  0
    0.7953    4.1915    8.1580 H   0  0  0  0  0  0
    0.7851    5.5931    9.2431 H   0  0  0  0  0  0
    0.5963    2.1738   12.8140 H   0  0  0  0  0  0
   -2.1491    3.8083    9.6613 H   0  0  0  0  0  0
   -0.6076    3.3418    8.9647 H   0  0  0  0  0  0
   -0.0866   -0.0319   13.6047 H   0  0  0  0  0  0
   -2.9618    1.1011   11.7440 H   0  0  0  0  0  0
   -1.8048    1.5202   13.0005 H   0  0  0  0  0  0
   -1.3849    0.3262   11.7470 H   0  0  0  0  0  0
  1  2  1  0  0  0
  1 31  1  0  0  0
  1 32  1  0  0  0
  1 33  1  0  0  0
  2  3  1  0  0  0
  3  4  2  0  0  0
  3 28  1  0  0  0
  4  5  1  0  0  0
  4 34  1  0  0  0
  5  6  2  0  0  0
  5 35  1  0  0  0
  6  7  1  0  0  0
  6 27  1  0  0  0
  7  8  1  0  0  0
  7 36  1  0  0  0
  8  9  2  0  0  0
  8 16  1  0  0  0
  9 10  1  0  0  0
 10 11  2  0  0  0
 10 17  1  0  0  0
 11 12  1  0  0  0
 11 37  1  0  0  0
 12 13  1  0  0  0
 12 16  1  0  0  0
 13 14  2  0  0  0
 13 38  1  0  0  0
 14 15  1  0  0  0
 14 39  1  0  0  0
 15 16  2  0  0  0
 17 18  2  0  0  0
 17 23  1  0  0  0
 18 19  1  0  0  0
 18 40  1  0  0  0
 19 20  2  0  0  0
 19 41  1  0  0  0
 20 21  1  0  0  0
 20 22  1  0  0  0
 21 42  1  0  0  0
 21 43  1  0  0  0
 21 44  1  0  0  0
 22 23  2  0  0  0
 22 24  1  0  0  0
 23 45  1  0  0  0
 24 25  2  0  0  0
 24 26  1  0  0  0
 26 46  1  0  0  0
 26 47  1  0  0  0
 27 28  2  0  0  0
 27 48  1  0  0  0
 28 29  1  0  0  0
 29 30  1  0  0  0
 30 49  1  0  0  0
 30 50  1  0  0  0
 30 51  1  0  0  0
M  END
> <s_m_entry_id>
1110

> <IC50[nM]>
28.3

> <s_m_Source_Path>
/projects/mai/users/kmzp800_harry/pmx_colab/docking_jobs/syk

> <s_m_Source_File>
tnks2_lig.sdf

> <i_m_Source_File_Index>
32

> <s_m_job_name>
glide-dock_SP_syk_mcs

> <r_i_docking_score>
-6.6991473217939

> <r_i_glide_gscore>
-6.6991473217939

> <r_i_glide_emodel>
-51.9794360163723

$$$$
CHEMBL3265029
                    3D
 Schrodinger Suite 2021-4.
 43 47  0  0  1  0            999 V2000
   -4.5296   -3.2285   15.4506 C   0  0  0  0  0  0
   -3.8797   -2.2670   14.6313 O   0  0  0  0  0  0
   -2.5286   -2.0820   14.8030 C   0  0  0  0  0  0
   -1.7404   -2.8291   15.7043 C   0  0  0  0  0  0
   -0.3668   -2.5796   15.8171 C   0  0  0  0  0  0
    0.2489   -1.5618   15.0668 C   0  0  0  0  0  0
    1.6146   -1.3389   15.2980 N   0  0  0  0  0  0
    2.5260   -0.4276   14.7324 C   0  0  0  0  0  0
    2.1898    0.3819   13.7584 N   0  0  0  0  0  0
    3.1189    1.2572   13.2292 C   0  0  0  0  0  0
    4.4202    1.2896   13.6804 C   0  0  0  0  0  0
    4.7536    0.4938   14.7294 N   0  0  0  0  0  0
    5.9032    0.3863   15.4852 C   0  0  0  0  0  0
    5.6064   -0.4966   16.4930 C   0  0  0  0  0  0
    4.3597   -1.0552   16.3308 N   0  0  0  0  0  0
    3.8276   -0.4078   15.2974 C   0  0  0  0  0  0
    2.6490    2.1689   12.1549 C   0  0  0  0  0  0
    3.5593    2.6719   11.1849 C   0  0  0  0  0  0
    3.1524    3.4983   10.1243 C   0  0  0  0  0  0
    1.7957    3.8640   10.0213 C   0  0  0  0  0  0
    0.9930    4.6373    9.1320 C   0  0  0  0  0  0
   -0.2623    4.6540    9.5125 N   0  0  0  0  0  0
   -0.3253    3.9137   10.6439 N   0  0  0  0  0  0
    0.8916    3.3867   11.0175 C   0  0  0  0  0  0
    1.2936    2.5530   12.0702 C   0  0  0  0  0  0
   -0.5375   -0.8209   14.1576 C   0  0  0  0  0  0
   -1.9129   -1.0869   14.0231 C   0  0  0  0  0  0
   -5.5889   -3.2539   15.1972 H   0  0  0  0  0  0
   -4.4488   -2.9723   16.5082 H   0  0  0  0  0  0
   -4.1286   -4.2302   15.2897 H   0  0  0  0  0  0
   -2.1621   -3.5995   16.3264 H   0  0  0  0  0  0
    0.2115   -3.1735   16.5069 H   0  0  0  0  0  0
    2.0183   -1.8882   16.0525 H   0  0  0  0  0  0
    5.1965    1.9351   13.2894 H   0  0  0  0  0  0
    6.7708    0.9802   15.2380 H   0  0  0  0  0  0
    6.1745   -0.7743   17.3542 H   0  0  0  0  0  0
    4.5996    2.4026   11.2356 H   0  0  0  0  0  0
    3.8815    3.8393    9.3999 H   0  0  0  0  0  0
    1.2896    5.1711    8.2404 H   0  0  0  0  0  0
   -1.2077    3.7984   11.1231 H   0  0  0  0  0  0
    0.5779    2.1886   12.7971 H   0  0  0  0  0  0
   -0.1038   -0.0470   13.5498 H   0  0  0  0  0  0
   -2.5072   -0.5289   13.3152 H   0  0  0  0  0  0
  1  2  1  0  0  0
  1 28  1  0  0  0
  1 29  1  0  0  0
  1 30  1  0  0  0
  2  3  1  0  0  0
  3  4  2  0  0  0
  3 27  1  0  0  0
  4  5  1  0  0  0
  4 31  1  0  0  0
  5  6  2  0  0  0
  5 32  1  0  0  0
  6  7  1  0  0  0
  6 26  1  0  0  0
  7  8  1  0  0  0
  7 33  1  0  0  0
  8  9  2  0  0  0
  8 16  1  0  0  0
  9 10  1  0  0  0
 10 11  2  0  0  0
 10 17  1  0  0  0
 11 12  1  0  0  0
 11 34  1  0  0  0
 12 13  1  0  0  0
 12 16  1  0  0  0
 13 14  2  0  0  0
 13 35  1  0  0  0
 14 15  1  0  0  0
 14 36  1  0  0  0
 15 16  2  0  0  0
 17 18  2  0  0  0
 17 25  1  0  0  0
 18 19  1  0  0  0
 18 37  1  0  0  0
 19 20  2  0  0  0
 19 38  1  0  0  0
 20 21  1  0  0  0
 20 24  1  0  0  0
 21 22  2  0  0  0
 21 39  1  0  0  0
 22 23  1  0  0  0
 23 24  1  0  0  0
 23 40  1  0  0  0
 24 25  2  0  0  0
 25 41  1  0  0  0
 26 27  2  0  0  0
 26 42  1  0  0  0
 27 43  1  0  0  0
M  END
> <s_m_entry_id>
1112

> <IC50[nM]>
7

> <s_m_Source_Path>
/projects/mai/users/kmzp800_harry/pmx_colab/docking_jobs/syk

> <s_m_Source_File>
tnks2_lig.sdf

> <i_m_Source_File_Index>
33

> <s_m_job_name>
glide-dock_SP_syk_mcs

> <r_i_docking_score>
-6.67505880572096

> <r_i_glide_gscore>
-6.67505880572096

> <r_i_glide_emodel>
-40.3602044042154

$$$$
CHEMBL3264994
                    3D
 Schrodinger Suite 2021-4.
 64 68  0  0  1  0            999 V2000
   -4.8003   -1.3972   15.6174 C   0  0  0  0  0  0
   -4.0317   -2.4114   14.7517 C   0  0  0  0  0  0
   -4.3827   -3.8244   15.2744 C   0  0  0  0  0  0
   -4.5098   -2.3195   13.2889 C   0  0  0  0  0  0
   -2.5285   -2.1106   14.8353 C   0  0  0  0  0  0
   -1.9291   -1.0740   14.0776 C   0  0  0  0  0  0
   -0.5551   -0.7985   14.2076 C   0  0  0  0  0  0
    0.2456   -1.5617   15.0864 C   0  0  0  0  0  0
    1.6136   -1.3438   15.3033 N   0  0  0  0  0  0
    2.5217   -0.4334   14.7295 C   0  0  0  0  0  0
    2.1830    0.3746   13.7587 N   0  0  0  0  0  0
    3.1140    1.2453   13.2201 C   0  0  0  0  0  0
    4.4149    1.2814   13.6708 C   0  0  0  0  0  0
    4.7512    0.4879   14.7214 N   0  0  0  0  0  0
    5.9023    0.3784   15.4755 C   0  0  0  0  0  0
    5.6018   -0.5145   16.4817 C   0  0  0  0  0  0
    4.3601   -1.0642   16.3205 N   0  0  0  0  0  0
    3.8247   -0.4135   15.2926 C   0  0  0  0  0  0
    2.6429    2.1595   12.1449 C   0  0  0  0  0  0
    3.5506    2.6567   11.1722 C   0  0  0  0  0  0
    3.1425    3.4914   10.1199 C   0  0  0  0  0  0
    1.7921    3.8588   10.0395 C   0  0  0  0  0  0
    0.8708    3.3940   11.0090 C   0  0  0  0  0  0
   -0.4706    3.8253   10.9235 N   0  0  0  0  0  0
   -1.5779    3.1358   11.2481 C   0  0  0  0  0  0
   -1.6985    1.9135   11.1554 O   0  0  0  0  0  0
   -2.7319    3.9959   11.6732 C   0  0  0  0  0  0
   -2.5601    4.9183   12.7294 C   0  0  0  0  0  0
   -3.6343    5.7197   13.1591 C   0  0  0  0  0  0
   -4.8949    5.6279   12.5306 C   0  0  0  0  0  0
   -5.0627    4.7118   11.4665 C   0  0  0  0  0  0
   -3.9925    3.8964   11.0464 C   0  0  0  0  0  0
   -6.0362    6.4938   12.9888 C   0  0  0  0  0  0
   -5.8033    7.4235   13.7898 O   0  0  0  0  0  0
   -7.1864    6.2613   12.5505 O   0  5  0  0  0  0
    1.2925    2.5532   12.0680 C   0  0  0  0  0  0
   -0.3513   -2.6053   15.8149 C   0  0  0  0  0  0
   -1.7162   -2.8716   15.6946 C   0  0  0  0  0  0
   -5.8714   -1.5931   15.5994 H   0  0  0  0  0  0
   -4.6438   -0.3761   15.2806 H   0  0  0  0  0  0
   -4.4745   -1.4449   16.6623 H   0  0  0  0  0  0
   -3.8810   -4.6051   14.7063 H   0  0  0  0  0  0
   -4.1146   -3.9467   16.3258 H   0  0  0  0  0  0
   -5.4567   -4.0190   15.2062 H   0  0  0  0  0  0
   -3.9640   -3.0204   12.6541 H   0  0  0  0  0  0
   -5.5690   -2.5562   13.2032 H   0  0  0  0  0  0
   -4.3699   -1.3223   12.8714 H   0  0  0  0  0  0
   -2.5129   -0.4757   13.3950 H   0  0  0  0  0  0
   -0.1327    0.0028   13.6290 H   0  0  0  0  0  0
    2.0564   -2.0190   15.9163 H   0  0  0  0  0  0
    5.1868    1.9288   13.2804 H   0  0  0  0  0  0
    6.7713    0.9629   15.2151 H   0  0  0  0  0  0
    6.1670   -0.7943   17.3351 H   0  0  0  0  0  0
    4.5880    2.3706   11.2106 H   0  0  0  0  0  0
    3.8677    3.8396    9.3927 H   0  0  0  0  0  0
    1.4732    4.5145    9.2416 H   0  0  0  0  0  0
   -0.6092    4.7852   10.6562 H   0  0  0  0  0  0
   -1.6045    5.0059   13.2270 H   0  0  0  0  0  0
   -3.4880    6.4050   13.9806 H   0  0  0  0  0  0
   -6.0192    4.6232   10.9687 H   0  0  0  0  0  0
   -4.1416    3.2108   10.2245 H   0  0  0  0  0  0
    0.6011    2.1960   12.8280 H   0  0  0  0  0  0
    0.2377   -3.2167   16.4786 H   0  0  0  0  0  0
   -2.1267   -3.6706   16.2792 H   0  0  0  0  0  0
  1  2  1  0  0  0
  1 39  1  0  0  0
  1 40  1  0  0  0
  1 41  1  0  0  0
  2  3  1  0  0  0
  2  4  1  0  0  0
  2  5  1  0  0  0
  3 42  1  0  0  0
  3 43  1  0  0  0
  3 44  1  0  0  0
  4 45  1  0  0  0
  4 46  1  0  0  0
  4 47  1  0  0  0
  5  6  2  0  0  0
  5 38  1  0  0  0
  6  7  1  0  0  0
  6 48  1  0  0  0
  7  8  2  0  0  0
  7 49  1  0  0  0
  8  9  1  0  0  0
  8 37  1  0  0  0
  9 10  1  0  0  0
  9 50  1  0  0  0
 10 11  2  0  0  0
 10 18  1  0  0  0
 11 12  1  0  0  0
 12 13  2  0  0  0
 12 19  1  0  0  0
 13 14  1  0  0  0
 13 51  1  0  0  0
 14 15  1  0  0  0
 14 18  1  0  0  0
 15 16  2  0  0  0
 15 52  1  0  0  0
 16 17  1  0  0  0
 16 53  1  0  0  0
 17 18  2  0  0  0
 19 20  2  0  0  0
 19 36  1  0  0  0
 20 21  1  0  0  0
 20 54  1  0  0  0
 21 22  2  0  0  0
 21 55  1  0  0  0
 22 23  1  0  0  0
 22 56  1  0  0  0
 23 24  1  0  0  0
 23 36  2  0  0  0
 24 25  1  0  0  0
 24 57  1  0  0  0
 25 26  2  0  0  0
 25 27  1  0  0  0
 27 28  2  0  0  0
 27 32  1  0  0  0
 28 29  1  0  0  0
 28 58  1  0  0  0
 29 30  2  0  0  0
 29 59  1  0  0  0
 30 31  1  0  0  0
 30 33  1  0  0  0
 31 32  2  0  0  0
 31 60  1  0  0  0
 32 61  1  0  0  0
 33 34  2  0  0  0
 33 35  1  0  0  0
 36 62  1  0  0  0
 37 38  2  0  0  0
 37 63  1  0  0  0
 38 64  1  0  0  0
M  CHG  1  35  -1
M  END
> <s_m_entry_id>
1091

> <IC50[nM]>
65

> <s_m_Source_Path>
/projects/mai/users/kmzp800_harry/pmx_colab/docking_jobs/syk

> <s_m_Source_File>
tnks2_lig.sdf

> <i_m_Source_File_Index>
35

> <s_m_job_name>
glide-dock_SP_syk_mcs

> <r_i_docking_score>
-7.12052517887624

> <r_i_glide_gscore>
-7.12052517887624

> <r_i_glide_emodel>
-63.3182473354332

$$$$
CHEMBL3265000
                    3D
 Schrodinger Suite 2021-4.
 67 71  0  0  1  0            999 V2000
   -4.5690   -3.0686   15.6303 C   0  0  0  0  0  0
   -3.9120   -2.2161   14.7115 O   0  0  0  0  0  0
   -2.5446   -2.0659   14.8255 C   0  0  0  0  0  0
   -1.7457   -2.8272   15.7071 C   0  0  0  0  0  0
   -0.3699   -2.5830   15.8171 C   0  0  0  0  0  0
    0.2420   -1.5510   15.0769 C   0  0  0  0  0  0
    1.6147   -1.3351   15.2979 N   0  0  0  0  0  0
    2.5317   -0.4299   14.7280 C   0  0  0  0  0  0
    2.1990    0.3728   13.7514 N   0  0  0  0  0  0
    3.1266    1.2540   13.2308 C   0  0  0  0  0  0
    4.4276    1.2897   13.6772 C   0  0  0  0  0  0
    4.7713    0.4857   14.7190 N   0  0  0  0  0  0
    5.9179    0.3809   15.4777 C   0  0  0  0  0  0
    5.6115   -0.4991   16.4886 C   0  0  0  0  0  0
    4.3647   -1.0580   16.3206 N   0  0  0  0  0  0
    3.8361   -0.4121   15.2889 C   0  0  0  0  0  0
    2.6537    2.1640   12.1592 C   0  0  0  0  0  0
    3.5612    2.6683   11.1905 C   0  0  0  0  0  0
    3.1464    3.4950   10.1391 C   0  0  0  0  0  0
    1.7985    3.8484   10.0405 C   0  0  0  0  0  0
    0.8728    3.3955   11.0093 C   0  0  0  0  0  0
    1.2980    2.5500   12.0610 C   0  0  0  0  0  0
   -0.5637    3.7826   10.8855 C   0  0  0  0  0  0
   -1.2323    3.4158    9.9233 O   0  0  0  0  0  0
   -1.0036    4.5432   11.8960 N   0  0  0  0  0  0
   -2.2839    5.1121   12.1166 C   0  0  0  0  0  0
   -2.5587    5.4625   13.4463 C   0  0  0  0  0  0
   -3.8024    6.0042   13.8069 C   0  0  0  0  0  0
   -4.7766    6.2702   12.8162 C   0  0  0  0  0  0
   -4.4972    5.9228   11.4737 C   0  0  0  0  0  0
   -3.2648    5.3431   11.1200 C   0  0  0  0  0  0
   -6.1091    6.8454   13.2067 C   0  0  0  0  0  0
   -6.6566    6.4036   14.2177 O   0  0  0  0  0  0
   -6.5356    7.8462   12.3969 N   0  5  0  0  0  0
   -7.9333    8.6305   12.6205 S   0  0  0  0  0  0
   -8.2975    9.4840   11.4774 O   0  0  0  0  0  0
   -8.0340    9.2339   13.9633 O   0  0  0  0  0  0
   -9.1520    7.2784   12.6011 C   0  0  0  0  0  0
   -0.5515   -0.8051   14.1758 C   0  0  0  0  0  0
   -1.9363   -1.0558   14.0399 C   0  0  0  0  0  0
   -2.7398   -0.3183   13.1980 O   0  0  0  0  0  0
   -2.1719    0.7290   12.4148 C   0  0  0  0  0  0
   -5.6358   -3.0298   15.4270 H   0  0  0  0  0  0
   -4.2375   -4.0967   15.5199 H   0  0  0  0  0  0
   -4.4004   -2.7327   16.6515 H   0  0  0  0  0  0
   -2.1675   -3.6003   16.3284 H   0  0  0  0  0  0
    0.2082   -3.1955   16.4972 H   0  0  0  0  0  0
    2.0165   -1.8605   16.0680 H   0  0  0  0  0  0
    5.1897    1.9619   13.3168 H   0  0  0  0  0  0
    6.7813    0.9935   15.2562 H   0  0  0  0  0  0
    6.1531   -0.7563   17.3656 H   0  0  0  0  0  0
    4.6028    2.3922   11.2237 H   0  0  0  0  0  0
    3.8623    3.8434    9.4097 H   0  0  0  0  0  0
    1.4702    4.4862    9.2350 H   0  0  0  0  0  0
    0.5869    2.1770   12.7906 H   0  0  0  0  0  0
   -0.3127    4.7363   12.6032 H   0  0  0  0  0  0
   -1.8223    5.2968   14.2261 H   0  0  0  0  0  0
   -3.9707    6.2536   14.8493 H   0  0  0  0  0  0
   -5.2396    6.0834   10.7098 H   0  0  0  0  0  0
   -3.0816    5.0897   10.0887 H   0  0  0  0  0  0
  -10.1437    7.6843   12.7848 H   0  0  0  0  0  0
   -8.9243    6.5602   13.3891 H   0  0  0  0  0  0
   -9.1139    6.7984   11.6238 H   0  0  0  0  0  0
   -0.0933   -0.0157   13.6136 H   0  0  0  0  0  0
   -2.9731    1.2131   11.8562 H   0  0  0  0  0  0
   -1.7015    1.4879   13.0395 H   0  0  0  0  0  0
   -1.4506    0.3376   11.6881 H   0  0  0  0  0  0
  1  2  1  0  0  0
  1 43  1  0  0  0
  1 44  1  0  0  0
  1 45  1  0  0  0
  2  3  1  0  0  0
  3  4  2  0  0  0
  3 40  1  0  0  0
  4  5  1  0  0  0
  4 46  1  0  0  0
  5  6  2  0  0  0
  5 47  1  0  0  0
  6  7  1  0  0  0
  6 39  1  0  0  0
  7  8  1  0  0  0
  7 48  1  0  0  0
  8  9  2  0  0  0
  8 16  1  0  0  0
  9 10  1  0  0  0
 10 11  2  0  0  0
 10 17  1  0  0  0
 11 12  1  0  0  0
 11 49  1  0  0  0
 12 13  1  0  0  0
 12 16  1  0  0  0
 13 14  2  0  0  0
 13 50  1  0  0  0
 14 15  1  0  0  0
 14 51  1  0  0  0
 15 16  2  0  0  0
 17 18  2  0  0  0
 17 22  1  0  0  0
 18 19  1  0  0  0
 18 52  1  0  0  0
 19 20  2  0  0  0
 19 53  1  0  0  0
 20 21  1  0  0  0
 20 54  1  0  0  0
 21 22  2  0  0  0
 21 23  1  0  0  0
 22 55  1  0  0  0
 23 24  2  0  0  0
 23 25  1  0  0  0
 25 26  1  0  0  0
 25 56  1  0  0  0
 26 27  2  0  0  0
 26 31  1  0  0  0
 27 28  1  0  0  0
 27 57  1  0  0  0
 28 29  2  0  0  0
 28 58  1  0  0  0
 29 30  1  0  0  0
 29 32  1  0  0  0
 30 31  2  0  0  0
 30 59  1  0  0  0
 31 60  1  0  0  0
 32 33  2  0  0  0
 32 34  1  0  0  0
 34 35  1  0  0  0
 35 36  2  0  0  0
 35 37  2  0  0  0
 35 38  1  0  0  0
 38 61  1  0  0  0
 38 62  1  0  0  0
 38 63  1  0  0  0
 39 40  2  0  0  0
 39 64  1  0  0  0
 40 41  1  0  0  0
 41 42  1  0  0  0
 42 65  1  0  0  0
 42 66  1  0  0  0
 42 67  1  0  0  0
M  CHG  1  34  -1
M  END
> <s_m_entry_id>
1079

> <IC50[nM]>
2.2

> <s_m_Source_Path>
/projects/mai/users/kmzp800_harry/pmx_colab/docking_jobs/syk

> <s_m_Source_File>
tnks2_lig.sdf

> <i_m_Source_File_Index>
36

> <s_m_job_name>
glide-dock_SP_syk_mcs

> <r_i_docking_score>
-8.60968787938805

> <r_i_glide_gscore>
-8.60968787938805

> <r_i_glide_emodel>
-90.9199495882747

$$$$
CHEMBL3265034
                    3D
 Schrodinger Suite 2021-4.
 53 58  0  0  1  0            999 V2000
   -6.3373   -1.9960   15.5123 C   0  0  0  0  0  0
   -4.8489   -1.6515   15.6802 C   0  0  0  0  0  0
   -4.0044   -2.4400   14.6689 C   0  0  0  0  0  0
   -4.5536   -2.2288   13.2445 C   0  0  0  0  0  0
   -6.0639   -2.5257   13.2115 C   0  0  0  0  0  0
   -6.7454   -1.7246   14.1737 O   0  0  0  0  0  0
   -2.5258   -2.1163   14.8015 C   0  0  0  0  0  0
   -1.7324   -2.8699   15.6898 C   0  0  0  0  0  0
   -0.3590   -2.5980   15.8176 C   0  0  0  0  0  0
    0.2424   -1.5571   15.0824 C   0  0  0  0  0  0
    1.6075   -1.3318   15.3066 N   0  0  0  0  0  0
    2.5284   -0.4446   14.7289 C   0  0  0  0  0  0
    2.1915    0.3556   13.7586 N   0  0  0  0  0  0
    3.1219    1.2397   13.2387 C   0  0  0  0  0  0
    4.4233    1.2885   13.6932 C   0  0  0  0  0  0
    4.7583    0.4834   14.7336 N   0  0  0  0  0  0
    5.9018    0.3835   15.5004 C   0  0  0  0  0  0
    5.5940   -0.4981   16.5041 C   0  0  0  0  0  0
    4.3501   -1.0630   16.3290 N   0  0  0  0  0  0
    3.8249   -0.4107   15.3014 C   0  0  0  0  0  0
    2.6461    2.1482   12.1569 C   0  0  0  0  0  0
    3.5597    2.6515   11.1948 C   0  0  0  0  0  0
    3.1420    3.4836   10.1384 C   0  0  0  0  0  0
    1.7896    3.8640   10.0270 C   0  0  0  0  0  0
    0.9883    4.6344    9.1273 C   0  0  0  0  0  0
   -0.2675    4.6469    9.5011 N   0  0  0  0  0  0
   -0.3251    3.9212   10.6426 N   0  0  0  0  0  0
    0.8902    3.3919   11.0222 C   0  0  0  0  0  0
    1.2942    2.5492   12.0726 C   0  0  0  0  0  0
   -0.5604   -0.7972   14.2048 C   0  0  0  0  0  0
   -1.9284   -1.0686   14.0693 C   0  0  0  0  0  0
   -6.5257   -3.0435   15.7540 H   0  0  0  0  0  0
   -6.9434   -1.3977   16.1936 H   0  0  0  0  0  0
   -4.5256   -1.8741   16.6983 H   0  0  0  0  0  0
   -4.7036   -0.5815   15.5376 H   0  0  0  0  0  0
   -4.1185   -3.4997   14.9042 H   0  0  0  0  0  0
   -4.3699   -1.2034   12.9034 H   0  0  0  0  0  0
   -4.0334   -2.8811   12.5416 H   0  0  0  0  0  0
   -6.2534   -3.5821   13.4087 H   0  0  0  0  0  0
   -6.4675   -2.3135   12.2211 H   0  0  0  0  0  0
   -2.1681   -3.6650   16.2787 H   0  0  0  0  0  0
    0.2295   -3.1879   16.5067 H   0  0  0  0  0  0
    2.0226   -1.9055   16.0307 H   0  0  0  0  0  0
    5.1788    1.9818   13.3422 H   0  0  0  0  0  0
    6.7584    1.0087   15.3011 H   0  0  0  0  0  0
    6.1129   -0.7594   17.4007 H   0  0  0  0  0  0
    4.5990    2.3631   11.2328 H   0  0  0  0  0  0
    3.8565    3.8207    9.4028 H   0  0  0  0  0  0
    1.2840    5.1580    8.2285 H   0  0  0  0  0  0
   -1.2017    3.8004   11.1281 H   0  0  0  0  0  0
    0.5753    2.2014   12.7986 H   0  0  0  0  0  0
   -0.1703    0.0170   13.6208 H   0  0  0  0  0  0
   -2.4897   -0.4486   13.3902 H   0  0  0  0  0  0
  1  2  1  0  0  0
  1  6  1  0  0  0
  1 32  1  0  0  0
  1 33  1  0  0  0
  2  3  1  0  0  0
  2 34  1  0  0  0
  2 35  1  0  0  0
  3  4  1  0  0  0
  3  7  1  0  0  0
  3 36  1  0  0  0
  4  5  1  0  0  0
  4 37  1  0  0  0
  4 38  1  0  0  0
  5  6  1  0  0  0
  5 39  1  0  0  0
  5 40  1  0  0  0
  7  8  2  0  0  0
  7 31  1  0  0  0
  8  9  1  0  0  0
  8 41  1  0  0  0
  9 10  2  0  0  0
  9 42  1  0  0  0
 10 11  1  0  0  0
 10 30  1  0  0  0
 11 12  1  0  0  0
 11 43  1  0  0  0
 12 13  2  0  0  0
 12 20  1  0  0  0
 13 14  1  0  0  0
 14 15  2  0  0  0
 14 21  1  0  0  0
 15 16  1  0  0  0
 15 44  1  0  0  0
 16 17  1  0  0  0
 16 20  1  0  0  0
 17 18  2  0  0  0
 17 45  1  0  0  0
 18 19  1  0  0  0
 18 46  1  0  0  0
 19 20  2  0  0  0
 21 22  2  0  0  0
 21 29  1  0  0  0
 22 23  1  0  0  0
 22 47  1  0  0  0
 23 24  2  0  0  0
 23 48  1  0  0  0
 24 25  1  0  0  0
 24 28  1  0  0  0
 25 26  2  0  0  0
 25 49  1  0  0  0
 26 27  1  0  0  0
 27 28  1  0  0  0
 27 50  1  0  0  0
 28 29  2  0  0  0
 29 51  1  0  0  0
 30 31  2  0  0  0
 30 52  1  0  0  0
 31 53  1  0  0  0
M  END
> <s_m_entry_id>
1097

> <IC50[nM]>
3.8

> <s_m_Source_Path>
/projects/mai/users/kmzp800_harry/pmx_colab/docking_jobs/syk

> <s_m_Source_File>
tnks2_lig.sdf

> <i_m_Source_File_Index>
37

> <s_m_job_name>
glide-dock_SP_syk_mcs

> <r_i_docking_score>
-6.89066653776115

> <r_i_glide_gscore>
-6.89066653776115

> <r_i_glide_emodel>
-44.6041799582921

$$$$
CHEMBL3265026
                    3D
 Schrodinger Suite 2021-4.
 51 55  0  0  1  0            999 V2000
   -4.5417   -3.1733   15.5159 C   0  0  0  0  0  0
   -3.8914   -2.2293   14.6769 O   0  0  0  0  0  0
   -2.5309   -2.0616   14.8173 C   0  0  0  0  0  0
   -1.7416   -2.8270   15.7062 C   0  0  0  0  0  0
   -0.3657   -2.5852   15.8180 C   0  0  0  0  0  0
    0.2523   -1.5710   15.0636 C   0  0  0  0  0  0
    1.6218   -1.3564   15.2872 N   0  0  0  0  0  0
    2.5350   -0.4351   14.7275 C   0  0  0  0  0  0
    2.2030    0.3691   13.7539 N   0  0  0  0  0  0
    3.1284    1.2538   13.2315 C   0  0  0  0  0  0
    4.4287    1.2923   13.6850 C   0  0  0  0  0  0
    4.7650    0.4871   14.7263 N   0  0  0  0  0  0
    5.9156    0.3773   15.4831 C   0  0  0  0  0  0
    5.6212   -0.5009   16.4927 C   0  0  0  0  0  0
    4.3738   -1.0649   16.3223 N   0  0  0  0  0  0
    3.8404   -0.4185   15.2935 C   0  0  0  0  0  0
    2.6490    2.1668   12.1609 C   0  0  0  0  0  0
    3.5521    2.6795   11.1933 C   0  0  0  0  0  0
    3.1267    3.4937   10.1323 C   0  0  0  0  0  0
    1.7708    3.8419   10.0376 C   0  0  0  0  0  0
    1.3663    4.6435    8.9932 O   0  0  0  0  0  0
   -0.0354    4.6408    8.7356 C   0  0  0  0  0  0
   -0.8187    4.8016   10.0468 C   0  0  0  0  0  0
   -0.4779    3.7429   10.9790 N   0  0  0  0  0  0
    0.8652    3.3811   11.0302 C   0  0  0  0  0  0
    1.2927    2.5481   12.0820 C   0  0  0  0  0  0
   -0.5317   -0.8191   14.1623 C   0  0  0  0  0  0
   -1.9183   -1.0561   14.0337 C   0  0  0  0  0  0
   -2.7314   -0.3119   13.2021 O   0  0  0  0  0  0
   -2.1609    0.6822   12.3592 C   0  0  0  0  0  0
   -5.6097   -3.1756   15.2969 H   0  0  0  0  0  0
   -4.4232   -2.9258   16.5735 H   0  0  0  0  0  0
   -4.1714   -4.1822   15.3325 H   0  0  0  0  0  0
   -2.1698   -3.5951   16.3310 H   0  0  0  0  0  0
    0.2153   -3.1832   16.5020 H   0  0  0  0  0  0
    2.0561   -2.0014   15.9407 H   0  0  0  0  0  0
    5.1938    1.9655   13.3166 H   0  0  0  0  0  0
    6.7823    0.9751   15.2413 H   0  0  0  0  0  0
    6.1700   -0.7807   17.3604 H   0  0  0  0  0  0
    4.5943    2.4150   11.2361 H   0  0  0  0  0  0
    3.8419    3.8400    9.4002 H   0  0  0  0  0  0
   -0.2775    5.4548    8.0512 H   0  0  0  0  0  0
   -0.3055    3.7106    8.2325 H   0  0  0  0  0  0
   -0.6010    5.7683   10.5026 H   0  0  0  0  0  0
   -1.8936    4.7707    9.8558 H   0  0  0  0  0  0
   -1.0012    3.6927   11.8356 H   0  0  0  0  0  0
    0.5985    2.1943   12.8370 H   0  0  0  0  0  0
   -0.0779   -0.0405   13.5796 H   0  0  0  0  0  0
   -2.9446    1.0946   11.7207 H   0  0  0  0  0  0
   -1.7529    1.5052   12.9485 H   0  0  0  0  0  0
   -1.3910    0.2651   11.7071 H   0  0  0  0  0  0
  1  2  1  0  0  0
  1 31  1  0  0  0
  1 32  1  0  0  0
  1 33  1  0  0  0
  2  3  1  0  0  0
  3  4  2  0  0  0
  3 28  1  0  0  0
  4  5  1  0  0  0
  4 34  1  0  0  0
  5  6  2  0  0  0
  5 35  1  0  0  0
  6  7  1  0  0  0
  6 27  1  0  0  0
  7  8  1  0  0  0
  7 36  1  0  0  0
  8  9  2  0  0  0
  8 16  1  0  0  0
  9 10  1  0  0  0
 10 11  2  0  0  0
 10 17  1  0  0  0
 11 12  1  0  0  0
 11 37  1  0  0  0
 12 13  1  0  0  0
 12 16  1  0  0  0
 13 14  2  0  0  0
 13 38  1  0  0  0
 14 15  1  0  0  0
 14 39  1  0  0  0
 15 16  2  0  0  0
 17 18  2  0  0  0
 17 26  1  0  0  0
 18 19  1  0  0  0
 18 40  1  0  0  0
 19 20  2  0  0  0
 19 41  1  0  0  0
 20 21  1  0  0  0
 20 25  1  0  0  0
 21 22  1  0  0  0
 22 23  1  0  0  0
 22 42  1  0  0  0
 22 43  1  0  0  0
 23 24  1  0  0  0
 23 44  1  0  0  0
 23 45  1  0  0  0
 24 25  1  0  0  0
 24 46  1  0  0  0
 25 26  2  0  0  0
 26 47  1  0  0  0
 27 28  2  0  0  0
 27 48  1  0  0  0
 28 29  1  0  0  0
 29 30  1  0  0  0
 30 49  1  0  0  0
 30 50  1  0  0  0
 30 51  1  0  0  0
M  END
> <s_m_entry_id>
1095

> <IC50[nM]>
4.7

> <s_m_Source_Path>
/projects/mai/users/kmzp800_harry/pmx_colab/docking_jobs/syk

> <s_m_Source_File>
tnks2_lig.sdf

> <i_m_Source_File_Index>
38

> <s_m_job_name>
glide-dock_SP_syk_mcs

> <r_i_docking_score>
-6.95751879655268

> <r_i_glide_gscore>
-6.95751879655268

> <r_i_glide_emodel>
-48.3117421252731

$$$$
CHEMBL3265011
                    3D
 Schrodinger Suite 2021-4.
 51 54  0  0  1  0            999 V2000
   -4.2083   -3.0947   16.0664 C   0  0  0  0  0  0
   -3.6739   -2.2393   15.0648 O   0  0  0  0  0  0
   -2.3048   -2.0734   15.0189 C   0  0  0  0  0  0
   -1.4003   -2.8162   15.8156 C   0  0  0  0  0  0
   -0.0198   -2.5661   15.7486 C   0  0  0  0  0  0
    0.4973   -1.5767   14.8913 C   0  0  0  0  0  0
    1.8906   -1.3903   14.9225 N   0  0  0  0  0  0
    2.7319   -0.3884   14.4042 C   0  0  0  0  0  0
    2.3287    0.4207   13.4603 N   0  0  0  0  0  0
    3.1448    1.4576   13.0471 C   0  0  0  0  0  0
    4.4081    1.6450   13.5526 C   0  0  0  0  0  0
    4.8304    0.8040   14.5248 N   0  0  0  0  0  0
    5.9954    0.7803   15.2594 C   0  0  0  0  0  0
    5.8038   -0.1686   16.2233 C   0  0  0  0  0  0
    4.5954   -0.8291   16.0623 N   0  0  0  0  0  0
    4.0132   -0.2431   15.0173 C   0  0  0  0  0  0
    2.5820    2.3835   12.0320 C   0  0  0  0  0  0
    1.2624    2.8695   12.1881 C   0  0  0  0  0  0
    0.6879    3.7479   11.2434 C   0  0  0  0  0  0
    1.4276    4.1300   10.1064 C   0  0  0  0  0  0
    2.7370    3.6677    9.9367 C   0  0  0  0  0  0
    3.3142    2.8043   10.8862 C   0  0  0  0  0  0
    4.7067    2.3000   10.5843 C   0  0  0  0  0  0
   -0.6944    4.2917   11.4605 C   0  0  0  0  0  0
   -1.5939    3.6147   11.9496 O   0  0  0  0  0  0
   -0.8655    5.5763   11.1467 N   0  0  0  0  0  0
   -0.4037   -0.8501   14.0791 C   0  0  0  0  0  0
   -1.8026   -1.0899   14.1403 C   0  0  0  0  0  0
   -2.7327   -0.3986   13.3893 O   0  0  0  0  0  0
   -2.2527    0.5705   12.4722 C   0  0  0  0  0  0
   -5.2963   -3.0632   16.0230 H   0  0  0  0  0  0
   -3.9028   -4.1304   15.9120 H   0  0  0  0  0  0
   -3.9102   -2.7745   17.0664 H   0  0  0  0  0  0
   -1.7373   -3.5775   16.5026 H   0  0  0  0  0  0
    0.6428   -3.1406   16.3810 H   0  0  0  0  0  0
    2.3651   -1.9588   15.6121 H   0  0  0  0  0  0
    5.0668    2.4595   13.2734 H   0  0  0  0  0  0
    6.7876    1.4880   15.0629 H   0  0  0  0  0  0
    6.4445   -0.3960   17.0566 H   0  0  0  0  0  0
    0.6899    2.5754   13.0568 H   0  0  0  0  0  0
    1.0014    4.7868    9.3618 H   0  0  0  0  0  0
    3.2933    3.9693    9.0611 H   0  0  0  0  0  0
    4.8301    2.2836    9.5026 H   0  0  0  0  0  0
    5.4534    2.9646   11.0177 H   0  0  0  0  0  0
    4.8735    1.2832   10.9386 H   0  0  0  0  0  0
   -1.7651    6.0057   11.2964 H   0  0  0  0  0  0
   -0.0832    6.1173   10.8076 H   0  0  0  0  0  0
   -0.0248   -0.1013   13.4078 H   0  0  0  0  0  0
   -3.0905    1.0386   11.9562 H   0  0  0  0  0  0
   -1.7067    1.3503   13.0019 H   0  0  0  0  0  0
   -1.6047    0.1255   11.7161 H   0  0  0  0  0  0
  1  2  1  0  0  0
  1 31  1  0  0  0
  1 32  1  0  0  0
  1 33  1  0  0  0
  2  3  1  0  0  0
  3  4  2  0  0  0
  3 28  1  0  0  0
  4  5  1  0  0  0
  4 34  1  0  0  0
  5  6  2  0  0  0
  5 35  1  0  0  0
  6  7  1  0  0  0
  6 27  1  0  0  0
  7  8  1  0  0  0
  7 36  1  0  0  0
  8  9  2  0  0  0
  8 16  1  0  0  0
  9 10  1  0  0  0
 10 11  2  0  0  0
 10 17  1  0  0  0
 11 12  1  0  0  0
 11 37  1  0  0  0
 12 13  1  0  0  0
 12 16  1  0  0  0
 13 14  2  0  0  0
 13 38  1  0  0  0
 14 15  1  0  0  0
 14 39  1  0  0  0
 15 16  2  0  0  0
 17 18  2  0  0  0
 17 22  1  0  0  0
 18 19  1  0  0  0
 18 40  1  0  0  0
 19 20  2  0  0  0
 19 24  1  0  0  0
 20 21  1  0  0  0
 20 41  1  0  0  0
 21 22  2  0  0  0
 21 42  1  0  0  0
 22 23  1  0  0  0
 23 43  1  0  0  0
 23 44  1  0  0  0
 23 45  1  0  0  0
 24 25  2  0  0  0
 24 26  1  0  0  0
 26 46  1  0  0  0
 26 47  1  0  0  0
 27 28  2  0  0  0
 27 48  1  0  0  0
 28 29  1  0  0  0
 29 30  1  0  0  0
 30 49  1  0  0  0
 30 50  1  0  0  0
 30 51  1  0  0  0
M  END
> <s_m_entry_id>
1088

> <IC50[nM]>
466

> <s_m_Source_Path>
/projects/mai/users/kmzp800_harry/pmx_colab/docking_jobs/syk

> <s_m_Source_File>
tnks2_lig.sdf

> <i_m_Source_File_Index>
40

> <s_m_job_name>
glide-dock_SP_syk_mcs

> <r_i_docking_score>
-7.41029688644312

> <r_i_glide_gscore>
-7.41029688644312

> <r_i_glide_emodel>
-61.8762743265557

$$$$
CHEMBL3265035
                    3D
 Schrodinger Suite 2021-4.
 51 55  0  0  1  0            999 V2000
   -4.4247   -2.5841   13.4142 C   0  0  0  0  0  0
   -3.8920   -2.3486   14.7455 N   0  0  0  0  0  0
   -4.5921   -2.8505   15.9294 C   0  0  0  0  0  0
   -5.7264   -1.9151   16.3631 C   0  0  0  0  0  0
   -5.1849   -0.7852   17.0177 O   0  0  0  0  0  0
   -2.5149   -2.1024   14.8294 C   0  0  0  0  0  0
   -1.9106   -1.1062   14.0330 C   0  0  0  0  0  0
   -0.5350   -0.8360   14.1603 C   0  0  0  0  0  0
    0.2576   -1.5737   15.0667 C   0  0  0  0  0  0
    1.6236   -1.3555   15.2897 N   0  0  0  0  0  0
    2.5328   -0.4340   14.7336 C   0  0  0  0  0  0
    2.1937    0.3770   13.7596 N   0  0  0  0  0  0
    3.1216    1.2579   13.2344 C   0  0  0  0  0  0
    4.4229    1.2918   13.6853 C   0  0  0  0  0  0
    4.7575    0.4922   14.7290 N   0  0  0  0  0  0
    5.9045    0.3857   15.4879 C   0  0  0  0  0  0
    5.6102   -0.4955   16.4961 C   0  0  0  0  0  0
    4.3659   -1.0590   16.3282 N   0  0  0  0  0  0
    3.8347   -0.4125   15.2963 C   0  0  0  0  0  0
    2.6503    2.1660   12.1582 C   0  0  0  0  0  0
    3.5594    2.6750   11.1911 C   0  0  0  0  0  0
    3.1526    3.5030   10.1318 C   0  0  0  0  0  0
    1.7974    3.8627   10.0231 C   0  0  0  0  0  0
    0.9931    4.6399    9.1340 C   0  0  0  0  0  0
   -0.2639    4.6501    9.5096 N   0  0  0  0  0  0
   -0.3266    3.9124   10.6430 N   0  0  0  0  0  0
    0.8924    3.3864   11.0176 C   0  0  0  0  0  0
    1.2950    2.5516   12.0710 C   0  0  0  0  0  0
   -0.3469   -2.5969   15.8175 C   0  0  0  0  0  0
   -1.7153   -2.8478   15.7125 C   0  0  0  0  0  0
   -3.6695   -3.0206   12.7567 H   0  0  0  0  0  0
   -5.2666   -3.2753   13.4526 H   0  0  0  0  0  0
   -4.7667   -1.6493   12.9733 H   0  0  0  0  0  0
   -3.9232   -2.9725   16.7775 H   0  0  0  0  0  0
   -4.9863   -3.8426   15.6990 H   0  0  0  0  0  0
   -6.4008   -2.4242   17.0545 H   0  0  0  0  0  0
   -6.3161   -1.5964   15.5078 H   0  0  0  0  0  0
   -4.7964   -1.0642   17.8400 H   0  0  0  0  0  0
   -2.5019   -0.5311   13.3362 H   0  0  0  0  0  0
   -0.1121   -0.0515   13.5584 H   0  0  0  0  0  0
    2.0650   -2.0007   15.9346 H   0  0  0  0  0  0
    5.1948    1.9450   13.2984 H   0  0  0  0  0  0
    6.7714    0.9846   15.2460 H   0  0  0  0  0  0
    6.1759   -0.7724   17.3623 H   0  0  0  0  0  0
    4.6009    2.4129   11.2424 H   0  0  0  0  0  0
    3.8795    3.8500    9.4093 H   0  0  0  0  0  0
    1.2905    5.1777    8.2454 H   0  0  0  0  0  0
   -1.2099    3.7955   11.1221 H   0  0  0  0  0  0
    0.5795    2.1938   12.8007 H   0  0  0  0  0  0
    0.2249   -3.2085   16.4974 H   0  0  0  0  0  0
   -2.1313   -3.6353   16.3184 H   0  0  0  0  0  0
  1  2  1  0  0  0
  1 31  1  0  0  0
  1 32  1  0  0  0
  1 33  1  0  0  0
  2  3  1  0  0  0
  2  6  1  0  0  0
  3  4  1  0  0  0
  3 34  1  0  0  0
  3 35  1  0  0  0
  4  5  1  0  0  0
  4 36  1  0  0  0
  4 37  1  0  0  0
  5 38  1  0  0  0
  6  7  2  0  0  0
  6 30  1  0  0  0
  7  8  1  0  0  0
  7 39  1  0  0  0
  8  9  2  0  0  0
  8 40  1  0  0  0
  9 10  1  0  0  0
  9 29  1  0  0  0
 10 11  1  0  0  0
 10 41  1  0  0  0
 11 12  2  0  0  0
 11 19  1  0  0  0
 12 13  1  0  0  0
 13 14  2  0  0  0
 13 20  1  0  0  0
 14 15  1  0  0  0
 14 42  1  0  0  0
 15 16  1  0  0  0
 15 19  1  0  0  0
 16 17  2  0  0  0
 16 43  1  0  0  0
 17 18  1  0  0  0
 17 44  1  0  0  0
 18 19  2  0  0  0
 20 21  2  0  0  0
 20 28  1  0  0  0
 21 22  1  0  0  0
 21 45  1  0  0  0
 22 23  2  0  0  0
 22 46  1  0  0  0
 23 24  1  0  0  0
 23 27  1  0  0  0
 24 25  2  0  0  0
 24 47  1  0  0  0
 25 26  1  0  0  0
 26 27  1  0  0  0
 26 48  1  0  0  0
 27 28  2  0  0  0
 28 49  1  0  0  0
 29 30  2  0  0  0
 29 50  1  0  0  0
 30 51  1  0  0  0
M  END
> <s_m_entry_id>
1093

> <IC50[nM]>
7.6

> <s_m_Source_Path>
/projects/mai/users/kmzp800_harry/pmx_colab/docking_jobs/syk

> <s_m_Source_File>
tnks2_lig.sdf

> <i_m_Source_File_Index>
41

> <s_m_job_name>
glide-dock_SP_syk_mcs

> <r_i_docking_score>
-7.0283213963991

> <r_i_glide_gscore>
-7.0283213963991

> <r_i_glide_emodel>
-48.1520131842679

$$$$
CHEMBL3265020
                    3D
 Schrodinger Suite 2021-4.
 48 52  0  0  1  0            999 V2000
   -4.5238   -3.2230   15.4819 C   0  0  0  0  0  0
   -3.8810   -2.2546   14.6649 O   0  0  0  0  0  0
   -2.5261   -2.0646   14.8179 C   0  0  0  0  0  0
   -1.7369   -2.8235   15.7078 C   0  0  0  0  0  0
   -0.3633   -2.5820   15.8174 C   0  0  0  0  0  0
    0.2508   -1.5612   15.0735 C   0  0  0  0  0  0
    1.6180   -1.3414   15.3038 N   0  0  0  0  0  0
    2.5294   -0.4273   14.7285 C   0  0  0  0  0  0
    2.1949    0.3773   13.7596 N   0  0  0  0  0  0
    3.1211    1.2566   13.2274 C   0  0  0  0  0  0
    4.4213    1.2908   13.6857 C   0  0  0  0  0  0
    4.7563    0.4952   14.7336 N   0  0  0  0  0  0
    5.9094    0.3834   15.4871 C   0  0  0  0  0  0
    5.6214   -0.5011   16.4926 C   0  0  0  0  0  0
    4.3666   -1.0554   16.3346 N   0  0  0  0  0  0
    3.8340   -0.4100   15.3043 C   0  0  0  0  0  0
    2.6526    2.1640   12.1493 C   0  0  0  0  0  0
    3.5632    2.6649   11.1791 C   0  0  0  0  0  0
    3.1592    3.4888   10.1186 C   0  0  0  0  0  0
    1.8091    3.8397   10.0339 C   0  0  0  0  0  0
    1.1022    4.6045    9.1255 N   0  0  0  0  0  0
   -0.2379    4.6484    9.4855 C   0  0  0  0  0  0
   -0.4160    3.9242   10.6493 C   0  0  0  0  0  0
    0.8606    3.3883   11.0077 C   0  0  0  0  0  0
    1.2982    2.5504   12.0626 C   0  0  0  0  0  0
   -0.5331   -0.8084   14.1767 C   0  0  0  0  0  0
   -1.9180   -1.0513   14.0401 C   0  0  0  0  0  0
   -2.7329   -0.3142   13.2037 O   0  0  0  0  0  0
   -2.1765    0.7144   12.3899 C   0  0  0  0  0  0
   -5.5843   -3.2500   15.2338 H   0  0  0  0  0  0
   -4.4392   -2.9724   16.5405 H   0  0  0  0  0  0
   -4.1216   -4.2231   15.3142 H   0  0  0  0  0  0
   -2.1583   -3.5951   16.3267 H   0  0  0  0  0  0
    0.2166   -3.1834   16.4971 H   0  0  0  0  0  0
    2.0094   -1.8538   16.0889 H   0  0  0  0  0  0
    5.1963    1.9400   13.2981 H   0  0  0  0  0  0
    6.7767    0.9739   15.2326 H   0  0  0  0  0  0
    6.1829   -0.7812   17.3472 H   0  0  0  0  0  0
    4.6031    2.3967   11.2306 H   0  0  0  0  0  0
    3.8807    3.8327    9.3925 H   0  0  0  0  0  0
    1.4888    5.0769    8.3154 H   0  0  0  0  0  0
   -0.9426    5.2040    8.8677 H   0  0  0  0  0  0
   -1.3267    3.7590   11.2187 H   0  0  0  0  0  0
    0.5953    2.1922   12.8113 H   0  0  0  0  0  0
   -0.0702   -0.0351   13.5946 H   0  0  0  0  0  0
   -2.9839    1.1923   11.8310 H   0  0  0  0  0  0
   -1.6925    1.4876   12.9865 H   0  0  0  0  0  0
   -1.4685    0.3163   11.6627 H   0  0  0  0  0  0
  1  2  1  0  0  0
  1 30  1  0  0  0
  1 31  1  0  0  0
  1 32  1  0  0  0
  2  3  1  0  0  0
  3  4  2  0  0  0
  3 27  1  0  0  0
  4  5  1  0  0  0
  4 33  1  0  0  0
  5  6  2  0  0  0
  5 34  1  0  0  0
  6  7  1  0  0  0
  6 26  1  0  0  0
  7  8  1  0  0  0
  7 35  1  0  0  0
  8  9  2  0  0  0
  8 16  1  0  0  0
  9 10  1  0  0  0
 10 11  2  0  0  0
 10 17  1  0  0  0
 11 12  1  0  0  0
 11 36  1  0  0  0
 12 13  1  0  0  0
 12 16  1  0  0  0
 13 14  2  0  0  0
 13 37  1  0  0  0
 14 15  1  0  0  0
 14 38  1  0  0  0
 15 16  2  0  0  0
 17 18  2  0  0  0
 17 25  1  0  0  0
 18 19  1  0  0  0
 18 39  1  0  0  0
 19 20  2  0  0  0
 19 40  1  0  0  0
 20 21  1  0  0  0
 20 24  1  0  0  0
 21 22  1  0  0  0
 21 41  1  0  0  0
 22 23  2  0  0  0
 22 42  1  0  0  0
 23 24  1  0  0  0
 23 43  1  0  0  0
 24 25  2  0  0  0
 25 44  1  0  0  0
 26 27  2  0  0  0
 26 45  1  0  0  0
 27 28  1  0  0  0
 28 29  1  0  0  0
 29 46  1  0  0  0
 29 47  1  0  0  0
 29 48  1  0  0  0
M  END
> <s_m_entry_id>
1103

> <IC50[nM]>
8.6

> <s_m_Source_Path>
/projects/mai/users/kmzp800_harry/pmx_colab/docking_jobs/syk

> <s_m_Source_File>
tnks2_lig.sdf

> <i_m_Source_File_Index>
42

> <s_m_job_name>
glide-dock_SP_syk_mcs

> <r_i_docking_score>
-6.80073112877411

> <r_i_glide_gscore>
-6.80073112877411

> <r_i_glide_emodel>
-46.3536372670676

$$$$
CHEMBL3265032
                    3D
 Schrodinger Suite 2021-4.
 52 57  0  0  1  0            999 V2000
   -5.4387   -4.0141   15.7101 C   0  0  0  0  0  0
   -4.6992   -2.6828   15.9115 C   0  0  0  0  0  0
   -3.9167   -2.3234   14.7347 N   0  0  0  0  0  0
   -4.6350   -2.3976   13.4718 C   0  0  0  0  0  0
   -5.3618   -3.7519   13.3576 C   0  0  0  0  0  0
   -6.1896   -3.9712   14.4982 O   0  0  0  0  0  0
   -2.5320   -2.0904   14.8134 C   0  0  0  0  0  0
   -1.7391   -2.8315   15.7116 C   0  0  0  0  0  0
   -0.3656   -2.5858   15.8163 C   0  0  0  0  0  0
    0.2474   -1.5710   15.0609 C   0  0  0  0  0  0
    1.6137   -1.3478   15.2908 N   0  0  0  0  0  0
    2.5261   -0.4323   14.7280 C   0  0  0  0  0  0
    2.1875    0.3802   13.7576 N   0  0  0  0  0  0
    3.1177    1.2571   13.2320 C   0  0  0  0  0  0
    4.4181    1.2883   13.6818 C   0  0  0  0  0  0
    4.7530    0.4905   14.7243 N   0  0  0  0  0  0
    5.9025    0.3840   15.4769 C   0  0  0  0  0  0
    5.6106   -0.5010   16.4865 C   0  0  0  0  0  0
    4.3641   -1.0589   16.3217 N   0  0  0  0  0  0
    3.8299   -0.4138   15.2940 C   0  0  0  0  0  0
    2.6467    2.1720   12.1595 C   0  0  0  0  0  0
    3.5575    2.6768   11.1904 C   0  0  0  0  0  0
    3.1497    3.5026   10.1306 C   0  0  0  0  0  0
    1.7949    3.8651   10.0217 C   0  0  0  0  0  0
    0.9899    4.6364    9.1275 C   0  0  0  0  0  0
   -0.2659    4.6508    9.5075 N   0  0  0  0  0  0
   -0.3274    3.9125   10.6390 N   0  0  0  0  0  0
    0.8895    3.3872   11.0177 C   0  0  0  0  0  0
    1.2876    2.5524   12.0695 C   0  0  0  0  0  0
   -0.5397   -0.8335   14.1501 C   0  0  0  0  0  0
   -1.9181   -1.0998   14.0175 C   0  0  0  0  0  0
   -6.1101   -4.1976   16.5518 H   0  0  0  0  0  0
   -4.7335   -4.8441   15.6841 H   0  0  0  0  0  0
   -4.0554   -2.7420   16.7829 H   0  0  0  0  0  0
   -5.4237   -1.8946   16.1102 H   0  0  0  0  0  0
   -5.3686   -1.5962   13.4167 H   0  0  0  0  0  0
   -3.9526   -2.2649   12.6351 H   0  0  0  0  0  0
   -5.9767   -3.7799   12.4574 H   0  0  0  0  0  0
   -4.6386   -4.5624   13.2732 H   0  0  0  0  0  0
   -2.1702   -3.5961   16.3347 H   0  0  0  0  0  0
    0.2136   -3.1793   16.5063 H   0  0  0  0  0  0
    2.0203   -1.8936   16.0437 H   0  0  0  0  0  0
    5.1914    1.9424   13.2940 H   0  0  0  0  0  0
    6.7709    0.9798   15.2321 H   0  0  0  0  0  0
    6.1860   -0.7795   17.3458 H   0  0  0  0  0  0
    4.5992    2.4059   11.2392 H   0  0  0  0  0  0
    3.8773    3.8449    9.4053 H   0  0  0  0  0  0
    1.2879    5.1677    8.2380 H   0  0  0  0  0  0
   -1.2107    3.7953   11.1173 H   0  0  0  0  0  0
    0.5732    2.1910   12.7967 H   0  0  0  0  0  0
   -0.1097   -0.0620   13.5373 H   0  0  0  0  0  0
   -2.4976   -0.5325   13.3076 H   0  0  0  0  0  0
  1  2  1  0  0  0
  1  6  1  0  0  0
  1 32  1  0  0  0
  1 33  1  0  0  0
  2  3  1  0  0  0
  2 34  1  0  0  0
  2 35  1  0  0  0
  3  4  1  0  0  0
  3  7  1  0  0  0
  4  5  1  0  0  0
  4 36  1  0  0  0
  4 37  1  0  0  0
  5  6  1  0  0  0
  5 38  1  0  0  0
  5 39  1  0  0  0
  7  8  2  0  0  0
  7 31  1  0  0  0
  8  9  1  0  0  0
  8 40  1  0  0  0
  9 10  2  0  0  0
  9 41  1  0  0  0
 10 11  1  0  0  0
 10 30  1  0  0  0
 11 12  1  0  0  0
 11 42  1  0  0  0
 12 13  2  0  0  0
 12 20  1  0  0  0
 13 14  1  0  0  0
 14 15  2  0  0  0
 14 21  1  0  0  0
 15 16  1  0  0  0
 15 43  1  0  0  0
 16 17  1  0  0  0
 16 20  1  0  0  0
 17 18  2  0  0  0
 17 44  1  0  0  0
 18 19  1  0  0  0
 18 45  1  0  0  0
 19 20  2  0  0  0
 21 22  2  0  0  0
 21 29  1  0  0  0
 22 23  1  0  0  0
 22 46  1  0  0  0
 23 24  2  0  0  0
 23 47  1  0  0  0
 24 25  1  0  0  0
 24 28  1  0  0  0
 25 26  2  0  0  0
 25 48  1  0  0  0
 26 27  1  0  0  0
 27 28  1  0  0  0
 27 49  1  0  0  0
 28 29  2  0  0  0
 29 50  1  0  0  0
 30 31  2  0  0  0
 30 51  1  0  0  0
 31 52  1  0  0  0
M  END
> <s_m_entry_id>
1116

> <IC50[nM]>
10000

> <s_m_Source_Path>
/projects/mai/users/kmzp800_harry/pmx_colab/docking_jobs/syk

> <s_m_Source_File>
tnks2_lig.sdf

> <i_m_Source_File_Index>
43

> <s_m_job_name>
glide-dock_SP_syk_mcs

> <r_i_docking_score>
-6.61221885856298

> <r_i_glide_gscore>
-6.61221885856298

> <r_i_glide_emodel>
-47.6250808067881

$$$$
CHEMBL3265002
                    3D
 Schrodinger Suite 2021-4.
 65 70  0  0  1  0            999 V2000
   -4.5735   -3.0616   15.6235 C   0  0  0  0  0  0
   -3.8995   -2.2378   14.6780 O   0  0  0  0  0  0
   -2.5424   -2.0588   14.8283 C   0  0  0  0  0  0
   -1.7461   -2.8235   15.7135 C   0  0  0  0  0  0
   -0.3700   -2.5781   15.8177 C   0  0  0  0  0  0
    0.2415   -1.5579   15.0680 C   0  0  0  0  0  0
    1.6082   -1.3320   15.2949 N   0  0  0  0  0  0
    2.5252   -0.4285   14.7286 C   0  0  0  0  0  0
    2.1985    0.3684   13.7462 N   0  0  0  0  0  0
    3.1304    1.2455   13.2239 C   0  0  0  0  0  0
    4.4313    1.2826   13.6672 C   0  0  0  0  0  0
    4.7642    0.4818   14.7148 N   0  0  0  0  0  0
    5.9094    0.3837   15.4845 C   0  0  0  0  0  0
    5.6082   -0.4982   16.4892 C   0  0  0  0  0  0
    4.3643   -1.0624   16.3175 N   0  0  0  0  0  0
    3.8294   -0.4118   15.2890 C   0  0  0  0  0  0
    2.6555    2.1658   12.1572 C   0  0  0  0  0  0
    3.5615    2.6776   11.1896 C   0  0  0  0  0  0
    3.1467    3.5027   10.1347 C   0  0  0  0  0  0
    1.7948    3.8573   10.0434 C   0  0  0  0  0  0
    0.8739    3.3943   11.0163 C   0  0  0  0  0  0
    1.2983    2.5492   12.0664 C   0  0  0  0  0  0
   -0.5647    3.7662   10.8840 C   0  0  0  0  0  0
   -1.1036    3.7157    9.7782 O   0  0  0  0  0  0
   -1.1545    4.1859   12.0231 N   0  0  0  0  0  0
   -2.4711    4.6931   12.1809 C   0  0  0  0  0  0
   -2.7425    5.5829   13.2435 C   0  0  0  0  0  0
   -4.0410    6.1031   13.4223 C   0  0  0  0  0  0
   -5.0775    5.7502   12.5355 C   0  0  0  0  0  0
   -4.8088    4.8419   11.4909 C   0  0  0  0  0  0
   -3.5198    4.3166   11.3108 C   0  0  0  0  0  0
   -6.4261    6.2796   12.7337 C   0  0  0  0  0  0
   -6.7087    7.3897   13.4175 N   0  0  0  0  0  0
   -8.1001    7.5145   13.3817 C   0  0  0  0  0  0
   -8.6386    6.4883   12.6432 C   0  0  0  0  0  0
   -7.5508    5.7223   12.2546 N   0  0  0  0  0  0
   -0.5467   -0.8141   14.1682 C   0  0  0  0  0  0
   -1.9330   -1.0542   14.0440 C   0  0  0  0  0  0
   -2.7411   -0.3207   13.1983 O   0  0  0  0  0  0
   -2.1591    0.6841   12.3742 C   0  0  0  0  0  0
   -5.6367   -3.0462   15.3889 H   0  0  0  0  0  0
   -4.2344   -4.1008   15.5835 H   0  0  0  0  0  0
   -4.4518   -2.6810   16.6397 H   0  0  0  0  0  0
   -2.1656   -3.6022   16.3298 H   0  0  0  0  0  0
    0.2145   -3.1841   16.4921 H   0  0  0  0  0  0
    2.0154   -1.8732   16.0502 H   0  0  0  0  0  0
    5.1957    1.9528   13.2919 H   0  0  0  0  0  0
    6.7704    0.9975   15.2710 H   0  0  0  0  0  0
    6.1389   -0.7846   17.3655 H   0  0  0  0  0  0
    4.6091    2.4254   11.2335 H   0  0  0  0  0  0
    3.8628    3.8562    9.4020 H   0  0  0  0  0  0
    1.4730    4.4910    9.2309 H   0  0  0  0  0  0
    0.5876    2.1767   12.7931 H   0  0  0  0  0  0
   -0.5513    4.2783   12.8311 H   0  0  0  0  0  0
   -1.9633    5.8803   13.9356 H   0  0  0  0  0  0
   -4.2480    6.7687   14.2503 H   0  0  0  0  0  0
   -5.5909    4.5302   10.8188 H   0  0  0  0  0  0
   -3.3538    3.6268   10.4950 H   0  0  0  0  0  0
   -8.5976    8.3376   13.8804 H   0  0  0  0  0  0
   -9.6618    6.2565   12.3781 H   0  0  0  0  0  0
   -7.5783    4.8907   11.6848 H   0  0  0  0  0  0
   -0.1036   -0.0434   13.5727 H   0  0  0  0  0  0
   -2.9381    1.1515   11.7701 H   0  0  0  0  0  0
   -1.6925    1.4716   12.9650 H   0  0  0  0  0  0
   -1.4176    0.2677   11.6886 H   0  0  0  0  0  0
  1  2  1  0  0  0
  1 41  1  0  0  0
  1 42  1  0  0  0
  1 43  1  0  0  0
  2  3  1  0  0  0
  3  4  2  0  0  0
  3 38  1  0  0  0
  4  5  1  0  0  0
  4 44  1  0  0  0
  5  6  2  0  0  0
  5 45  1  0  0  0
  6  7  1  0  0  0
  6 37  1  0  0  0
  7  8  1  0  0  0
  7 46  1  0  0  0
  8  9  2  0  0  0
  8 16  1  0  0  0
  9 10  1  0  0  0
 10 11  2  0  0  0
 10 17  1  0  0  0
 11 12  1  0  0  0
 11 47  1  0  0  0
 12 13  1  0  0  0
 12 16  1  0  0  0
 13 14  2  0  0  0
 13 48  1  0  0  0
 14 15  1  0  0  0
 14 49  1  0  0  0
 15 16  2  0  0  0
 17 18  2  0  0  0
 17 22  1  0  0  0
 18 19  1  0  0  0
 18 50  1  0  0  0
 19 20  2  0  0  0
 19 51  1  0  0  0
 20 21  1  0  0  0
 20 52  1  0  0  0
 21 22  2  0  0  0
 21 23  1  0  0  0
 22 53  1  0  0  0
 23 24  2  0  0  0
 23 25  1  0  0  0
 25 26  1  0  0  0
 25 54  1  0  0  0
 26 27  2  0  0  0
 26 31  1  0  0  0
 27 28  1  0  0  0
 27 55  1  0  0  0
 28 29  2  0  0  0
 28 56  1  0  0  0
 29 30  1  0  0  0
 29 32  1  0  0  0
 30 31  2  0  0  0
 30 57  1  0  0  0
 31 58  1  0  0  0
 32 33  2  0  0  0
 32 36  1  0  0  0
 33 34  1  0  0  0
 34 35  2  0  0  0
 34 59  1  0  0  0
 35 36  1  0  0  0
 35 60  1  0  0  0
 36 61  1  0  0  0
 37 38  2  0  0  0
 37 62  1  0  0  0
 38 39  1  0  0  0
 39 40  1  0  0  0
 40 63  1  0  0  0
 40 64  1  0  0  0
 40 65  1  0  0  0
M  END
> <s_m_entry_id>
1087

> <IC50[nM]>
16.5

> <s_m_Source_Path>
/projects/mai/users/kmzp800_harry/pmx_colab/docking_jobs/syk

> <s_m_Source_File>
tnks2_lig.sdf

> <i_m_Source_File_Index>
44

> <s_m_job_name>
glide-dock_SP_syk_mcs

> <r_i_docking_score>
-7.5025273229221

> <r_i_glide_gscore>
-7.5025273229221

> <r_i_glide_emodel>
-71.3956041782148

$$$$
CHEMBL3265031
                    3D
 Schrodinger Suite 2021-4.
 58 63  0  0  1  0            999 V2000
   -6.7841   -5.4232   13.8577 C   0  0  0  0  0  0
   -6.2092   -4.0574   14.2070 C   0  0  0  0  0  0
   -7.3056   -3.1859   14.3790 O   0  0  0  0  0  0
   -5.3890   -4.1561   15.5048 C   0  0  0  0  0  0
   -4.6724   -2.8349   15.8220 C   0  0  0  0  0  0
   -3.8749   -2.3836   14.6788 N   0  0  0  0  0  0
   -4.6000   -2.2537   13.4005 C   0  0  0  0  0  0
   -5.3205   -3.5735   13.0526 C   0  0  0  0  0  0
   -2.5254   -2.1032   14.8022 C   0  0  0  0  0  0
   -1.7448   -2.8676   15.6772 C   0  0  0  0  0  0
   -0.3910   -2.6125   15.8125 C   0  0  0  0  0  0
    0.2214   -1.5798   15.0861 C   0  0  0  0  0  0
    1.5937   -1.3533   15.3012 N   0  0  0  0  0  0
    2.5468   -0.4711   14.7540 C   0  0  0  0  0  0
    2.2186    0.3565   13.7203 N   0  0  0  0  0  0
    3.1228    1.2395   13.2204 C   0  0  0  0  0  0
    4.4238    1.3051   13.7206 C   0  0  0  0  0  0
    4.7479    0.4929   14.7645 N   0  0  0  0  0  0
    5.8940    0.3866   15.5076 C   0  0  0  0  0  0
    5.5726   -0.5129   16.5127 C   0  0  0  0  0  0
    4.3860   -1.0544   16.3889 N   0  0  0  0  0  0
    3.8362   -0.4210   15.3297 C   0  0  0  0  0  0
    2.6608    2.1513   12.1291 C   0  0  0  0  0  0
    1.3104    2.5542   12.0413 C   0  0  0  0  0  0
    0.8655    3.3714   10.9929 C   0  0  0  0  0  0
    1.7918    3.8075   10.0291 C   0  0  0  0  0  0
    1.7778    4.6042    8.8383 C   0  0  0  0  0  0
    2.9654    4.6970    8.3035 N   0  0  0  0  0  0
    3.7150    4.0809    9.0420 N   0  0  0  0  0  0
    3.1317    3.4449   10.1297 C   0  0  0  0  0  0
    3.5525    2.6290   11.1657 C   0  0  0  0  0  0
   -0.5645   -0.8236   14.2100 C   0  0  0  0  0  0
   -1.9379   -1.0727   14.0595 C   0  0  0  0  0  0
   -6.0005   -6.1654   13.7151 H   0  0  0  0  0  0
   -7.3797   -5.3858   12.9448 H   0  0  0  0  0  0
   -7.4408   -5.7870   14.6523 H   0  0  0  0  0  0
   -7.0874   -2.5703   15.0600 H   0  0  0  0  0  0
   -6.0475   -4.4371   16.3317 H   0  0  0  0  0  0
   -4.6540   -4.9604   15.4130 H   0  0  0  0  0  0
   -5.4045   -2.0554   16.0516 H   0  0  0  0  0  0
   -4.0743   -2.9495   16.7166 H   0  0  0  0  0  0
   -5.3292   -1.4395   13.4224 H   0  0  0  0  0  0
   -3.8897   -1.9947   12.6275 H   0  0  0  0  0  0
   -4.5780   -4.3344   12.8135 H   0  0  0  0  0  0
   -5.9233   -3.4347   12.1486 H   0  0  0  0  0  0
   -2.1970   -3.6683   16.2429 H   0  0  0  0  0  0
    0.1954   -3.2336   16.4807 H   0  0  0  0  0  0
    2.0504   -1.9869   15.9329 H   0  0  0  0  0  0
    5.1991    1.9580   13.3346 H   0  0  0  0  0  0
    6.7737    0.9350   15.2296 H   0  0  0  0  0  0
    6.1687   -0.8020   17.3769 H   0  0  0  0  0  0
    0.6036    2.2368   12.7934 H   0  0  0  0  0  0
   -0.1725    3.6455   10.9288 H   0  0  0  0  0  0
    0.9357    5.1013    8.3670 H   0  0  0  0  0  0
    4.7041    4.0522    8.8514 H   0  0  0  0  0  0
    4.6005    2.3533   11.2019 H   0  0  0  0  0  0
   -0.1279   -0.0168   13.6459 H   0  0  0  0  0  0
   -2.5211   -0.4705   13.3796 H   0  0  0  0  0  0
  1  2  1  0  0  0
  1 34  1  0  0  0
  1 35  1  0  0  0
  1 36  1  0  0  0
  2  3  1  0  0  0
  2  4  1  0  0  0
  2  8  1  0  0  0
  3 37  1  0  0  0
  4  5  1  0  0  0
  4 38  1  0  0  0
  4 39  1  0  0  0
  5  6  1  0  0  0
  5 40  1  0  0  0
  5 41  1  0  0  0
  6  7  1  0  0  0
  6  9  1  0  0  0
  7  8  1  0  0  0
  7 42  1  0  0  0
  7 43  1  0  0  0
  8 44  1  0  0  0
  8 45  1  0  0  0
  9 10  2  0  0  0
  9 33  1  0  0  0
 10 11  1  0  0  0
 10 46  1  0  0  0
 11 12  2  0  0  0
 11 47  1  0  0  0
 12 13  1  0  0  0
 12 32  1  0  0  0
 13 14  1  0  0  0
 13 48  1  0  0  0
 14 15  2  0  0  0
 14 22  1  0  0  0
 15 16  1  0  0  0
 16 17  2  0  0  0
 16 23  1  0  0  0
 17 18  1  0  0  0
 17 49  1  0  0  0
 18 19  1  0  0  0
 18 22  1  0  0  0
 19 20  2  0  0  0
 19 50  1  0  0  0
 20 21  1  0  0  0
 20 51  1  0  0  0
 21 22  2  0  0  0
 23 24  2  0  0  0
 23 31  1  0  0  0
 24 25  1  0  0  0
 24 52  1  0  0  0
 25 26  2  0  0  0
 25 53  1  0  0  0
 26 27  1  0  0  0
 26 30  1  0  0  0
 27 28  2  0  0  0
 27 54  1  0  0  0
 28 29  1  0  0  0
 29 30  1  0  0  0
 29 55  1  0  0  0
 30 31  2  0  0  0
 31 56  1  0  0  0
 32 33  2  0  0  0
 32 57  1  0  0  0
 33 58  1  0  0  0
M  END
> <s_m_entry_id>
2027

> <IC50[nM]>
1.4

> <s_m_Source_Path>
/projects/mai/users/kmzp800_harry/pmx_colab/docking_jobs/syk

> <s_m_Source_File>
tnks2_lig.sdf

> <i_m_Source_File_Index>
8

> <s_m_job_name>
glide-dock_SP_syk_single_compound_mcs_8

> <r_i_docking_score>
-9.63985919952393

> <r_i_glide_gscore>
-9.63985919952393

> <r_i_glide_emodel>
-30.2111396789551

$$$$
CHEMBL3265036
                    3D
 Schrodinger Suite 2021-4.
 55 60  0  0  1  0            999 V2000
   -4.7885   -4.4943   15.7614 C   0  0  0  0  0  0
   -5.3797   -5.0114   14.4330 C   0  0  0  0  0  0
   -4.4284   -4.8505   13.2282 O   0  0  0  0  0  0
   -4.4843   -3.4756   12.5387 C   0  0  0  0  0  0
   -4.6078   -2.2537   13.4645 C   0  0  0  0  0  0
   -3.8668   -2.4066   14.7182 N   0  0  0  0  0  0
   -4.6426   -2.9544   15.8439 C   0  0  0  0  0  0
   -2.5304   -2.1088   14.8043 C   0  0  0  0  0  0
   -1.9381   -1.0743   14.0627 C   0  0  0  0  0  0
   -0.5669   -0.8222   14.2155 C   0  0  0  0  0  0
    0.2189   -1.5878   15.0874 C   0  0  0  0  0  0
    1.5949   -1.3540   15.3078 N   0  0  0  0  0  0
    2.5430   -0.4697   14.7500 C   0  0  0  0  0  0
    2.2134    0.3506   13.7173 N   0  0  0  0  0  0
    3.1244    1.2412   13.2158 C   0  0  0  0  0  0
    4.4190    1.3004   13.7147 C   0  0  0  0  0  0
    4.7494    0.4918   14.7642 N   0  0  0  0  0  0
    5.8879    0.3810   15.5041 C   0  0  0  0  0  0
    5.5696   -0.5102   16.5172 C   0  0  0  0  0  0
    4.3819   -1.0524   16.3954 N   0  0  0  0  0  0
    3.8327   -0.4186   15.3276 C   0  0  0  0  0  0
    2.6582    2.1564   12.1295 C   0  0  0  0  0  0
    3.5522    2.6301   11.1707 C   0  0  0  0  0  0
    3.1317    3.4507   10.1268 C   0  0  0  0  0  0
    1.7894    3.8116   10.0313 C   0  0  0  0  0  0
    0.9652    4.5743    9.1484 C   0  0  0  0  0  0
   -0.2869    4.5935    9.5456 N   0  0  0  0  0  0
   -0.3278    3.9231   10.5702 N   0  0  0  0  0  0
    0.8619    3.3699   10.9934 C   0  0  0  0  0  0
    1.3122    2.5540   12.0379 C   0  0  0  0  0  0
   -0.3859   -2.6060   15.8131 C   0  0  0  0  0  0
   -1.7539   -2.8689   15.6761 C   0  0  0  0  0  0
   -3.8214   -4.9547   15.9310 H   0  0  0  0  0  0
   -5.4275   -4.8169   16.5780 H   0  0  0  0  0  0
   -5.5829   -6.0806   14.5619 H   0  0  0  0  0  0
   -6.3514   -4.5539   14.2289 H   0  0  0  0  0  0
   -5.3148   -3.4801   11.8379 H   0  0  0  0  0  0
   -3.5970   -3.3478   11.9259 H   0  0  0  0  0  0
   -5.6561   -2.0372   13.6653 H   0  0  0  0  0  0
   -4.2315   -1.3723   12.9411 H   0  0  0  0  0  0
   -4.1872   -2.6900   16.8001 H   0  0  0  0  0  0
   -5.6326   -2.4990   15.8685 H   0  0  0  0  0  0
   -2.5301   -0.4779   13.3803 H   0  0  0  0  0  0
   -0.1135   -0.0265   13.6493 H   0  0  0  0  0  0
    2.0593   -1.9916   15.9388 H   0  0  0  0  0  0
    5.1960    1.9642   13.3415 H   0  0  0  0  0  0
    6.7757    0.9380   15.2339 H   0  0  0  0  0  0
    6.1644   -0.8023   17.3683 H   0  0  0  0  0  0
    4.5963    2.3518   11.2245 H   0  0  0  0  0  0
    3.8384    3.8099    9.4046 H   0  0  0  0  0  0
    1.2464    5.1124    8.2535 H   0  0  0  0  0  0
   -1.2059    3.8075   11.0687 H   0  0  0  0  0  0
    0.5995    2.2605   12.7926 H   0  0  0  0  0  0
    0.1866   -3.2310   16.4821 H   0  0  0  0  0  0
   -2.2025   -3.6731   16.2497 H   0  0  0  0  0  0
  1  2  1  0  0  0
  1  7  1  0  0  0
  1 33  1  0  0  0
  1 34  1  0  0  0
  2  3  1  0  0  0
  2 35  1  0  0  0
  2 36  1  0  0  0
  3  4  1  0  0  0
  4  5  1  0  0  0
  4 37  1  0  0  0
  4 38  1  0  0  0
  5  6  1  0  0  0
  5 39  1  0  0  0
  5 40  1  0  0  0
  6  7  1  0  0  0
  6  8  1  0  0  0
  7 41  1  0  0  0
  7 42  1  0  0  0
  8  9  2  0  0  0
  8 32  1  0  0  0
  9 10  1  0  0  0
  9 43  1  0  0  0
 10 11  2  0  0  0
 10 44  1  0  0  0
 11 12  1  0  0  0
 11 31  1  0  0  0
 12 13  1  0  0  0
 12 45  1  0  0  0
 13 14  2  0  0  0
 13 21  1  0  0  0
 14 15  1  0  0  0
 15 16  2  0  0  0
 15 22  1  0  0  0
 16 17  1  0  0  0
 16 46  1  0  0  0
 17 18  1  0  0  0
 17 21  1  0  0  0
 18 19  2  0  0  0
 18 47  1  0  0  0
 19 20  1  0  0  0
 19 48  1  0  0  0
 20 21  2  0  0  0
 22 23  2  0  0  0
 22 30  1  0  0  0
 23 24  1  0  0  0
 23 49  1  0  0  0
 24 25  2  0  0  0
 24 50  1  0  0  0
 25 26  1  0  0  0
 25 29  1  0  0  0
 26 27  2  0  0  0
 26 51  1  0  0  0
 27 28  1  0  0  0
 28 29  1  0  0  0
 28 52  1  0  0  0
 29 30  2  0  0  0
 30 53  1  0  0  0
 31 32  2  0  0  0
 31 54  1  0  0  0
 32 55  1  0  0  0
M  END
> <s_m_entry_id>
2062

> <IC50[nM]>
23.1

> <s_m_Source_Path>
/projects/mai/users/kmzp800_harry/pmx_colab/docking_jobs/syk

> <s_m_Source_File>
tnks2_lig.sdf

> <i_m_Source_File_Index>
30

> <s_m_job_name>
glide-dock_SP_syk_single_compound_mcs_8

> <r_i_docking_score>
-6.31818168086354

> <r_i_glide_gscore>
-6.31818168086354

> <r_i_glide_emodel>
-51.739803314209

$$$$
CHEMBL3265030_n
                    3D
 Schrodinger Suite 2021-4.
 52 57  0  0  1  0            999 V2000
   -6.7379   -2.9510   14.1515 C   0  0  0  0  0  0
   -5.5358   -2.3497   13.4324 C   0  0  0  0  0  0
   -5.8694   -1.9328   12.1319 O   0  0  0  0  0  0
   -4.7824   -1.2908   14.2415 C   0  0  0  0  0  0
   -3.8602   -2.3646   14.5917 N   0  0  0  0  0  0
   -4.2707   -3.2127   13.4837 C   0  0  0  0  0  0
   -2.5220   -2.1098   14.8094 C   0  0  0  0  0  0
   -1.7513   -2.8708   15.6810 C   0  0  0  0  0  0
   -0.3882   -2.6084   15.8173 C   0  0  0  0  0  0
    0.2257   -1.5803   15.0913 C   0  0  0  0  0  0
    1.5926   -1.3477   15.3078 N   0  0  0  0  0  0
    2.5497   -0.4702   14.7489 C   0  0  0  0  0  0
    2.2193    0.3527   13.7196 N   0  0  0  0  0  0
    3.1185    1.2440   13.2221 C   0  0  0  0  0  0
    4.4235    1.3081   13.7185 C   0  0  0  0  0  0
    4.7461    0.4907   14.7639 N   0  0  0  0  0  0
    5.8892    0.3849   15.5063 C   0  0  0  0  0  0
    5.5685   -0.5086   16.5164 C   0  0  0  0  0  0
    4.3789   -1.0573   16.3969 N   0  0  0  0  0  0
    3.8296   -0.4147   15.3237 C   0  0  0  0  0  0
    2.6553    2.1548   12.1371 C   0  0  0  0  0  0
    3.5598    2.6285   11.1702 C   0  0  0  0  0  0
    3.1281    3.4506   10.1312 C   0  0  0  0  0  0
    1.7842    3.8045   10.0275 C   0  0  0  0  0  0
    0.9624    4.5821    9.1482 C   0  0  0  0  0  0
   -0.2906    4.5875    9.5419 N   0  0  0  0  0  0
   -0.3300    3.9244   10.5754 N   0  0  0  0  0  0
    0.8650    3.3720   10.9873 C   0  0  0  0  0  0
    1.3091    2.5556   12.0371 C   0  0  0  0  0  0
   -0.5664   -0.8273   14.2156 C   0  0  0  0  0  0
   -1.9390   -1.0796   14.0607 C   0  0  0  0  0  0
   -6.4712   -3.2986   15.1585 H   0  0  0  0  0  0
   -7.1396   -3.8141   13.6128 H   0  0  0  0  0  0
   -7.5381   -2.2297   14.2720 H   0  0  0  0  0  0
   -5.0797   -1.9648   11.6228 H   0  0  0  0  0  0
   -4.3369   -0.5132   13.6163 H   0  0  0  0  0  0
   -5.3364   -0.8825   15.0879 H   0  0  0  0  0  0
   -4.4631   -4.2481   13.7733 H   0  0  0  0  0  0
   -3.6310   -3.1461   12.6040 H   0  0  0  0  0  0
   -2.2032   -3.6606   16.2520 H   0  0  0  0  0  0
    0.1811   -3.2182   16.4951 H   0  0  0  0  0  0
    2.0071   -1.8406   16.0859 H   0  0  0  0  0  0
    5.1968    1.9655   13.3457 H   0  0  0  0  0  0
    6.7769    0.9389   15.2344 H   0  0  0  0  0  0
    6.1680   -0.8012   17.3709 H   0  0  0  0  0  0
    4.6004    2.3540   11.2240 H   0  0  0  0  0  0
    3.8394    3.8037    9.4025 H   0  0  0  0  0  0
    1.2419    5.1151    8.2504 H   0  0  0  0  0  0
   -1.2014    3.8141   11.0685 H   0  0  0  0  0  0
    0.5959    2.2602   12.7907 H   0  0  0  0  0  0
   -0.1233   -0.0345   13.6228 H   0  0  0  0  0  0
   -2.5397   -0.4983   13.3759 H   0  0  0  0  0  0
  1  2  1  0  0  0
  1 32  1  0  0  0
  1 33  1  0  0  0
  1 34  1  0  0  0
  2  3  1  0  0  0
  2  4  1  0  0  0
  2  6  1  0  0  0
  3 35  1  0  0  0
  4  5  1  0  0  0
  4 36  1  0  0  0
  4 37  1  0  0  0
  5  6  1  0  0  0
  5  7  1  0  0  0
  6 38  1  0  0  0
  6 39  1  0  0  0
  7  8  2  0  0  0
  7 31  1  0  0  0
  8  9  1  0  0  0
  8 40  1  0  0  0
  9 10  2  0  0  0
  9 41  1  0  0  0
 10 11  1  0  0  0
 10 30  1  0  0  0
 11 12  1  0  0  0
 11 42  1  0  0  0
 12 13  2  0  0  0
 12 20  1  0  0  0
 13 14  1  0  0  0
 14 15  2  0  0  0
 14 21  1  0  0  0
 15 16  1  0  0  0
 15 43  1  0  0  0
 16 17  1  0  0  0
 16 20  1  0  0  0
 17 18  2  0  0  0
 17 44  1  0  0  0
 18 19  1  0  0  0
 18 45  1  0  0  0
 19 20  2  0  0  0
 21 22  2  0  0  0
 21 29  1  0  0  0
 22 23  1  0  0  0
 22 46  1  0  0  0
 23 24  2  0  0  0
 23 47  1  0  0  0
 24 25  1  0  0  0
 24 28  1  0  0  0
 25 26  2  0  0  0
 25 48  1  0  0  0
 26 27  1  0  0  0
 27 28  1  0  0  0
 27 49  1  0  0  0
 28 29  2  0  0  0
 29 50  1  0  0  0
 30 31  2  0  0  0
 30 51  1  0  0  0
 31 52  1  0  0  0
M  END
> <s_m_entry_id>
2042

> <IC50[nM]>
3.9

> <s_m_Source_Path>
/projects/mai/users/kmzp800_harry/pmx_colab/docking_jobs/syk

> <s_m_Source_File>
tnks2_lig.sdf

> <i_m_Source_File_Index>
34

> <s_m_job_name>
glide-dock_SP_syk_single_compound_mcs_8

> <r_i_docking_score>
-9.29452705383301

> <r_i_glide_gscore>
-9.29452705383301

> <r_i_glide_emodel>
-37.266040802002

$$$$
CHEMBL3265033
                    3D
 Schrodinger Suite 2021-4.
 54 59  0  0  1  0            999 V2000
   -8.0928   -1.6821   13.9582 O   0  0  0  0  0  0
   -7.0473   -2.9412   14.5939 S   0  0  0  0  0  0
   -7.7474   -4.4480   15.1474 O   0  0  0  0  0  0
   -6.0455   -2.2250   15.9462 C   0  0  0  0  0  0
   -4.6205   -2.7919   15.9354 C   0  0  0  0  0  0
   -3.8702   -2.4027   14.7228 N   0  0  0  0  0  0
   -4.5951   -2.3244   13.4434 C   0  0  0  0  0  0
   -5.7709   -3.3283   13.3565 C   0  0  0  0  0  0
   -2.5282   -2.1020   14.8077 C   0  0  0  0  0  0
   -1.9370   -1.0806   14.0605 C   0  0  0  0  0  0
   -0.5631   -0.8273   14.2091 C   0  0  0  0  0  0
    0.2229   -1.5844   15.0905 C   0  0  0  0  0  0
    1.5913   -1.3476   15.3089 N   0  0  0  0  0  0
    2.5439   -0.4686   14.7575 C   0  0  0  0  0  0
    2.2196    0.3566   13.7233 N   0  0  0  0  0  0
    3.1236    1.2396   13.2222 C   0  0  0  0  0  0
    4.4210    1.2990   13.7154 C   0  0  0  0  0  0
    4.7503    0.4900   14.7657 N   0  0  0  0  0  0
    5.8894    0.3855   15.5018 C   0  0  0  0  0  0
    5.5741   -0.5086   16.5160 C   0  0  0  0  0  0
    4.3847   -1.0546   16.3925 N   0  0  0  0  0  0
    3.8295   -0.4128   15.3285 C   0  0  0  0  0  0
    2.6555    2.1582   12.1369 C   0  0  0  0  0  0
    3.5556    2.6324   11.1673 C   0  0  0  0  0  0
    3.1317    3.4547   10.1296 C   0  0  0  0  0  0
    1.7841    3.8075   10.0352 C   0  0  0  0  0  0
    0.9670    4.5788    9.1473 C   0  0  0  0  0  0
   -0.2911    4.5854    9.5398 N   0  0  0  0  0  0
   -0.3270    3.9266   10.5760 N   0  0  0  0  0  0
    0.8672    3.3708   10.9941 C   0  0  0  0  0  0
    1.3111    2.5575   12.0370 C   0  0  0  0  0  0
   -0.3842   -2.6134   15.8103 C   0  0  0  0  0  0
   -1.7506   -2.8713   15.6811 C   0  0  0  0  0  0
   -6.0389   -1.1417   15.8143 H   0  0  0  0  0  0
   -6.5594   -2.4378   16.8771 H   0  0  0  0  0  0
   -4.6806   -3.8790   16.0150 H   0  0  0  0  0  0
   -4.0740   -2.4546   16.8044 H   0  0  0  0  0  0
   -4.9600   -1.3131   13.3103 H   0  0  0  0  0  0
   -3.9288   -2.5216   12.6094 H   0  0  0  0  0  0
   -6.2365   -3.3044   12.3778 H   0  0  0  0  0  0
   -5.4237   -4.3519   13.5287 H   0  0  0  0  0  0
   -2.5326   -0.4723   13.3923 H   0  0  0  0  0  0
   -0.1265   -0.0179   13.6499 H   0  0  0  0  0  0
    2.0563   -1.9808   15.9412 H   0  0  0  0  0  0
    5.1955    1.9649   13.3323 H   0  0  0  0  0  0
    6.7746    0.9342   15.2311 H   0  0  0  0  0  0
    6.1667   -0.7991   17.3732 H   0  0  0  0  0  0
    4.6035    2.3503   11.2256 H   0  0  0  0  0  0
    3.8376    3.8067    9.4028 H   0  0  0  0  0  0
    1.2443    5.1167    8.2564 H   0  0  0  0  0  0
   -1.2036    3.8069   11.0639 H   0  0  0  0  0  0
    0.5994    2.2576   12.7944 H   0  0  0  0  0  0
    0.1988   -3.2194   16.4879 H   0  0  0  0  0  0
   -2.2036   -3.6638   16.2503 H   0  0  0  0  0  0
  1  2  2  0  0  0
  2  3  2  0  0  0
  2  4  1  0  0  0
  2  8  1  0  0  0
  4  5  1  0  0  0
  4 34  1  0  0  0
  4 35  1  0  0  0
  5  6  1  0  0  0
  5 36  1  0  0  0
  5 37  1  0  0  0
  6  7  1  0  0  0
  6  9  1  0  0  0
  7  8  1  0  0  0
  7 38  1  0  0  0
  7 39  1  0  0  0
  8 40  1  0  0  0
  8 41  1  0  0  0
  9 10  2  0  0  0
  9 33  1  0  0  0
 10 11  1  0  0  0
 10 42  1  0  0  0
 11 12  2  0  0  0
 11 43  1  0  0  0
 12 13  1  0  0  0
 12 32  1  0  0  0
 13 14  1  0  0  0
 13 44  1  0  0  0
 14 15  2  0  0  0
 14 22  1  0  0  0
 15 16  1  0  0  0
 16 17  2  0  0  0
 16 23  1  0  0  0
 17 18  1  0  0  0
 17 45  1  0  0  0
 18 19  1  0  0  0
 18 22  1  0  0  0
 19 20  2  0  0  0
 19 46  1  0  0  0
 20 21  1  0  0  0
 20 47  1  0  0  0
 21 22  2  0  0  0
 23 24  2  0  0  0
 23 31  1  0  0  0
 24 25  1  0  0  0
 24 48  1  0  0  0
 25 26  2  0  0  0
 25 49  1  0  0  0
 26 27  1  0  0  0
 26 30  1  0  0  0
 27 28  2  0  0  0
 27 50  1  0  0  0
 28 29  1  0  0  0
 29 30  1  0  0  0
 29 51  1  0  0  0
 30 31  2  0  0  0
 31 52  1  0  0  0
 32 33  2  0  0  0
 32 53  1  0  0  0
 33 54  1  0  0  0
M  END
> <s_m_entry_id>
2070

> <IC50[nM]>
2.1

> <s_m_Source_Path>
/projects/mai/users/kmzp800_harry/pmx_colab/docking_jobs/syk

> <s_m_Source_File>
tnks2_lig.sdf

> <i_m_Source_File_Index>
39

> <s_m_job_name>
glide-dock_SP_syk_single_compound_mcs_8

> <r_i_docking_score>
-6.16565679544692

> <r_i_glide_gscore>
-6.16565679544692

> <r_i_glide_emodel>
-50.5769195556641

$$$$
