23:0:0
     RDKit          3D

 51 54  0  0  1  0  0  0  0  0999 V2000
    4.5360    2.1070   12.6000 C   0  0  0  0  0  0  0  0  0  0  0  0
    3.4190    2.6780   12.0820 N   0  0  0  0  0  0  0  0  0  0  0  0
    2.4290    1.8700   12.4980 C   0  0  0  0  0  0  0  0  0  0  0  0
    1.0710    2.0130   12.2360 C   0  0  0  0  0  0  0  0  0  0  0  0
    0.5900    3.1110   11.4460 N   0  0  0  0  0  0  0  0  0  0  0  0
    0.2250    1.0740   12.7560 N   0  0  0  0  0  0  0  0  0  0  0  0
    0.6670    0.0180   13.5140 C   0  0  0  0  0  0  0  0  0  0  0  0
    2.0480   -0.0950   13.7600 C   0  0  0  0  0  0  0  0  0  0  0  0
    2.8670    0.8460   13.2330 N   0  0  0  0  0  0  0  0  0  0  0  0
    4.1980    0.9630   13.3190 C   0  0  0  0  0  0  0  0  0  0  0  0
   -0.3270   -0.9620   14.0430 C   0  0  0  0  0  0  0  0  0  0  0  0
    0.1510   -1.9570   14.9120 C   0  0  0  0  0  0  0  0  0  0  0  0
   -0.7010   -2.9170   15.4580 C   0  0  0  0  0  0  0  0  0  0  0  0
   -2.0620   -2.9090   15.1460 C   0  0  0  0  0  0  0  0  0  0  0  0
   -2.5580   -1.9270   14.2820 C   0  0  0  0  0  0  0  0  0  0  0  0
   -1.7150   -0.9580   13.7290 C   0  0  0  0  0  0  0  0  0  0  0  0
   -2.3520    0.0400   12.8220 C   0  0  0  0  0  0  0  0  0  0  0  0
   -2.9650   -3.9230   15.7210 C   0  0  0  0  0  0  0  0  0  0  0  0
   -3.1450   -5.0220   15.1310 O   0  0  0  0  0  0  0  0  0  0  0  0
   -3.6440   -3.6720   16.9480 N   0  0  0  0  0  0  0  0  0  0  0  0
   -0.7710    3.3920   11.0920 C   0  0  0  0  0  0  0  0  0  0  0  0
   -1.2410    3.2570    9.7790 C   0  0  0  0  0  0  0  0  0  0  0  0
   -2.5730    3.5410    9.4740 C   0  0  0  0  0  0  0  0  0  0  0  0
   -3.4570    3.9650   10.4770 C   0  0  0  0  0  0  0  0  0  0  0  0
   -2.9940    4.1030   11.7950 C   0  0  0  0  0  0  0  0  0  0  0  0
   -1.6510    3.8150   12.0910 C   0  0  0  0  0  0  0  0  0  0  0  0
   -4.7960    4.2540   10.1900 O   0  0  0  0  0  0  0  0  0  0  0  0
   -5.2360    5.5440    9.7910 C   0  0  0  0  0  0  0  0  0  0  0  0
   -3.8810    4.5260   12.7910 O   0  0  0  0  0  0  0  0  0  0  0  0
   -3.7470    5.7730   13.4610 C   0  0  0  0  0  0  0  0  0  0  0  0
    5.5585    2.4914   12.4709 H   0  0  0  0  0  0  0  0  0  0  0  0
    1.3003    3.7691   11.0950 H   0  0  0  0  0  0  0  0  0  0  0  0
    2.4502   -0.9229   14.3623 H   0  0  0  0  0  0  0  0  0  0  0  0
    4.8867    0.2903   13.8510 H   0  0  0  0  0  0  0  0  0  0  0  0
    1.2207   -1.9795   15.1675 H   0  0  0  0  0  0  0  0  0  0  0  0
   -0.2991   -3.6834   16.1371 H   0  0  0  0  0  0  0  0  0  0  0  0
   -3.6295   -1.9169   14.0334 H   0  0  0  0  0  0  0  0  0  0  0  0
   -2.8479    0.8170   13.4223 H   0  0  0  0  0  0  0  0  0  0  0  0
   -1.5819    0.5028   12.1874 H   0  0  0  0  0  0  0  0  0  0  0  0
   -3.0960   -0.4637   12.1874 H   0  0  0  0  0  0  0  0  0  0  0  0
   -4.2732   -4.3851   17.3436 H   0  0  0  0  0  0  0  0  0  0  0  0
   -3.5057   -2.7775   17.4395 H   0  0  0  0  0  0  0  0  0  0  0  0
   -0.5565    2.9254    8.9843 H   0  0  0  0  0  0  0  0  0  0  0  0
   -2.9320    3.4316    8.4400 H   0  0  0  0  0  0  0  0  0  0  0  0
   -1.2876    3.9241   13.1235 H   0  0  0  0  0  0  0  0  0  0  0  0
   -5.4437    6.1528   10.6833 H   0  0  0  0  0  0  0  0  0  0  0  0
   -4.4525    6.0291    9.1903 H   0  0  0  0  0  0  0  0  0  0  0  0
   -6.1526    5.4492    9.1903 H   0  0  0  0  0  0  0  0  0  0  0  0
   -3.7647    5.6087   14.5485 H   0  0  0  0  0  0  0  0  0  0  0  0
   -2.7933    6.2415   13.1764 H   0  0  0  0  0  0  0  0  0  0  0  0
   -4.5793    6.4335   13.1764 H   0  0  0  0  0  0  0  0  0  0  0  0
  1 10  2  0
  1  2  1  0
  2  3  2  0
  3  9  1  0
  3  4  1  0
  4  6  2  0
  4  5  1  0
  5 21  1  0
  6  7  1  0
  7  8  2  0
  7 11  1  0
  8  9  1  0
  9 10  1  0
 11 12  2  0
 11 16  1  0
 12 13  1  0
 13 14  2  0
 14 18  1  0
 14 15  1  0
 15 16  2  0
 16 17  1  0
 18 20  1  0
 18 19  2  0
 21 26  1  0
 21 22  2  0
 22 23  1  0
 23 24  2  0
 24 25  1  0
 24 27  1  0
 25 26  2  0
 25 29  1  0
 27 28  1  0
 29 30  1  0
  1 31  1  0
  5 32  1  0
  8 33  1  0
 10 34  1  0
 12 35  1  0
 13 36  1  0
 15 37  1  0
 17 38  1  0
 17 39  1  0
 17 40  1  0
 20 41  1  0
 20 42  1  0
 22 43  1  0
 23 44  1  0
 26 45  1  0
 28 46  1  0
 28 47  1  0
 28 48  1  0
 30 49  1  0
 30 50  1  0
 30 51  1  0
M  END
>  <s_m_entry_id>  (1) 
24

>  <MODEL>  (1) 
1

>  <REMARK>  (1) 
 VINA RESULT:    -8.310      0.000      0.000
 INTER + INTRA:         -11.009
 INTER:                 -10.739
 INTRA:                  -0.270
 UNBOUND:                -0.270
  Name = /scratch/kmzp800/tmprt4jf7fx/tmpyym5tb8t.pdb
  8 active torsions:
  status: ('A' for Active; 'I' for Inactive)
    1  A    between atoms: N2_5  and  C4_6
    2  A    between atoms: C7_9  and  O1_10
    3  A    between atoms: O1_10  and  C8_11
    4  A    between atoms: C9_12  and  O2_13
    5  A    between atoms: O2_13  and  C10_14
    6  A    between atoms: C12_17  and  C13_18
    7  A    between atoms: C16_21  and  C17_22
    8  A    between atoms: C19_26  and  C20_27
                            x       y       z     vdW  Elec       q    Type
                         _______ _______ _______ _____ _____    ______ ____

>  <TORSDO>  (1) 
F 5

>  <grid_id>  (1) 
syk-prepared

>  <grid_path>  (1) 
syk_vina.pdbqt

>  <grid_filename>  (1) 
syk_vina.pdbqt

>  <docking_score>  (1) 
-8.31

>  <compound_name>  (1) 
CHEMBL3265015

>  <index_string>  (1) 
23:0:0

>  <s_m_Source_Path>  (1) 
/projects/mai/users/kmzp800_harry/pmx_colab/docking_jobs/syk/vina_prep/output

>  <s_m_Source_File>  (1) 
ptp1b_docked_conformers.sdf

>  <i_m_Source_File_Index>  (1) 
24

$$$$
