5:0:0
     RDKit          3D

 45 48  0  0  1  0  0  0  0  0999 V2000
  -16.3100  -15.6330  -24.0560 C   0  0  0  0  0  0  0  0  0  0  0  0
  -15.6670  -16.2720  -25.1290 C   0  0  0  0  0  0  0  0  0  0  0  0
  -16.4880  -14.2500  -24.0830 C   0  0  0  0  0  0  0  0  0  0  0  0
  -15.1640  -15.5030  -26.1910 C   0  0  0  0  0  0  0  0  0  0  0  0
  -15.5400  -17.6760  -25.1370 N   0  0  0  0  0  0  0  0  0  0  0  0
  -16.0150  -13.4960  -25.1550 C   0  0  0  0  0  0  0  0  0  0  0  0
  -15.3380  -14.1140  -26.2100 C   0  0  0  0  0  0  0  0  0  0  0  0
  -14.4310  -16.2160  -27.3090 C   0  0  0  0  0  0  0  0  0  0  0  0
  -14.3760  -17.5630  -27.1050 N   0  0  0  0  0  0  0  0  0  0  0  0
  -13.9090  -15.6820  -28.2900 O   0  0  0  0  0  0  0  0  0  0  0  0
  -14.9330  -18.3160  -26.0830 C   0  0  0  0  0  0  0  0  0  0  0  0
  -16.7780  -16.3260  -22.9970 F   0  0  0  0  0  0  0  0  0  0  0  0
  -16.2140  -12.1590  -25.1590 F   0  0  0  0  0  0  0  0  0  0  0  0
  -14.7830  -19.7960  -26.0900 C   0  0  0  0  0  0  0  0  0  0  0  0
  -13.9360  -20.4170  -25.1590 C   0  0  0  0  0  0  0  0  0  0  0  0
  -13.7540  -21.7980  -25.1650 C   0  0  0  0  0  0  0  0  0  0  0  0
  -14.4240  -22.6020  -26.0930 C   0  0  0  0  0  0  0  0  0  0  0  0
  -15.2880  -21.9910  -27.0080 C   0  0  0  0  0  0  0  0  0  0  0  0
  -15.4600  -20.6070  -27.0140 C   0  0  0  0  0  0  0  0  0  0  0  0
  -14.1490  -24.0960  -26.1900 C   0  0  0  0  0  0  0  0  0  0  0  0
  -14.9670  -24.7220  -27.3260 C   0  0  0  0  0  0  0  0  0  0  0  0
  -14.6080  -26.2070  -27.5110 C   0  0  0  0  0  0  0  0  0  0  0  0
  -13.1740  -26.3430  -27.7870 N   0  0  0  0  0  0  0  0  0  0  0  0
  -12.3860  -25.8550  -26.6500 C   0  0  0  0  0  0  0  0  0  0  0  0
  -12.6560  -24.3550  -26.4310 C   0  0  0  0  0  0  0  0  0  0  0  0
  -12.8600  -27.7620  -28.0170 C   0  0  0  0  0  0  0  0  0  0  0  0
  -17.0061  -13.7504  -23.2512 H   0  0  0  0  0  0  0  0  0  0  0  0
  -14.9463  -13.5158  -27.0459 H   0  0  0  0  0  0  0  0  0  0  0  0
  -13.8461  -18.0960  -27.8093 H   0  0  0  0  0  0  0  0  0  0  0  0
  -13.4081  -19.8041  -24.4136 H   0  0  0  0  0  0  0  0  0  0  0  0
  -13.0765  -22.2610  -24.4325 H   0  0  0  0  0  0  0  0  0  0  0  0
  -15.8386  -22.6099  -27.7318 H   0  0  0  0  0  0  0  0  0  0  0  0
  -16.1338  -20.1459  -27.7511 H   0  0  0  0  0  0  0  0  0  0  0  0
  -14.4449  -24.5582  -25.2367 H   0  0  0  0  0  0  0  0  0  0  0  0
  -16.0374  -24.6378  -27.0871 H   0  0  0  0  0  0  0  0  0  0  0  0
  -14.7371  -24.1871  -28.2593 H   0  0  0  0  0  0  0  0  0  0  0  0
  -14.8568  -26.7595  -26.5930 H   0  0  0  0  0  0  0  0  0  0  0  0
  -15.1801  -26.6153  -28.3572 H   0  0  0  0  0  0  0  0  0  0  0  0
  -12.6681  -26.4124  -25.7446 H   0  0  0  0  0  0  0  0  0  0  0  0
  -11.3165  -26.0037  -26.8599 H   0  0  0  0  0  0  0  0  0  0  0  0
  -12.3332  -23.7972  -27.3224 H   0  0  0  0  0  0  0  0  0  0  0  0
  -12.0946  -24.0229  -25.5453 H   0  0  0  0  0  0  0  0  0  0  0  0
  -12.7467  -28.2739  -27.0500 H   0  0  0  0  0  0  0  0  0  0  0  0
  -13.6762  -28.2305  -28.5865 H   0  0  0  0  0  0  0  0  0  0  0  0
  -11.9223  -27.8424  -28.5865 H   0  0  0  0  0  0  0  0  0  0  0  0
  1 12  1  0
  1  2  2  0
  1  3  1  0
  2  4  1  0
  2  5  1  0
  3  6  2  0
  4  7  2  0
  4  8  1  0
  5 11  2  0
  6  7  1  0
  6 13  1  0
  8  9  1  0
  8 10  2  0
  9 11  1  0
 11 14  1  0
 14 15  2  0
 14 19  1  0
 15 16  1  0
 16 17  2  0
 17 18  1  0
 17 20  1  0
 18 19  2  0
 20 21  1  0
 20 25  1  0
 21 22  1  0
 22 23  1  0
 23 24  1  0
 23 26  1  0
 24 25  1  0
  3 27  1  0
  7 28  1  0
  9 29  1  0
 15 30  1  0
 16 31  1  0
 18 32  1  0
 19 33  1  0
 20 34  1  0
 21 35  1  0
 21 36  1  0
 22 37  1  0
 22 38  1  0
 24 39  1  0
 24 40  1  0
 25 41  1  0
 25 42  1  0
 26 43  1  0
 26 44  1  0
 26 45  1  0
M  END
>  <s_m_entry_id>  (1) 
2394

>  <MODEL>  (1) 
1

>  <REMARK>  (1) 
 VINA RESULT:    -8.015      0.000      0.000
 INTER + INTRA:          -9.456
 INTER:                  -8.956
 INTRA:                  -0.500
 UNBOUND:                -0.503
  Name = 8e
  3 active torsions:
  status: ('A' for Active; 'I' for Inactive)
    1  A    between atoms: C_11  and  C_12
    2  A    between atoms: C_15  and  C_20
    3  A    between atoms: N_23  and  C_26
                            x       y       z     vdW  Elec       q    Type
                         _______ _______ _______ _____ _____    ______ ____

>  <TORSDO>  (1) 
F 2

>  <s_m_Source_Path>  (1) 
/projects/mai/users/kmzp800_harry/pmx_colab/docking_jobs/tnks2/vina_prep/output_mcs

>  <s_m_Source_File>  (1) 
tnks_mcs_vina__all_poses.sdf

>  <i_m_Source_File_Index>  (1) 
12

>  <index_string>  (1) 
5:0:0

$$$$
