8:0:0
     RDKit          3D

 44 47  0  0  1  0  0  0  0  0999 V2000
  -15.0140  -19.3470  -25.7500 C   0  0  0  0  0  0  0  0  0  0  0  0
  -14.9500  -19.9440  -27.0180 C   0  0  0  0  0  0  0  0  0  0  0  0
  -14.8030  -21.3200  -27.1560 C   0  0  0  0  0  0  0  0  0  0  0  0
  -14.7050  -22.1400  -26.0290 C   0  0  0  0  0  0  0  0  0  0  0  0
  -14.7510  -21.5510  -24.7620 C   0  0  0  0  0  0  0  0  0  0  0  0
  -14.9100  -20.1730  -24.6210 C   0  0  0  0  0  0  0  0  0  0  0  0
  -14.4910  -14.8290  -27.5050 C   0  0  0  0  0  0  0  0  0  0  0  0
  -14.9730  -15.6620  -26.4780 C   0  0  0  0  0  0  0  0  0  0  0  0
  -14.5910  -13.4440  -27.3660 C   0  0  0  0  0  0  0  0  0  0  0  0
  -15.6030  -15.0940  -25.3610 C   0  0  0  0  0  0  0  0  0  0  0  0
  -14.8120  -17.0580  -26.5660 N   0  0  0  0  0  0  0  0  0  0  0  0
  -15.1910  -12.8840  -26.2410 C   0  0  0  0  0  0  0  0  0  0  0  0
  -15.7140  -13.7040  -25.2370 C   0  0  0  0  0  0  0  0  0  0  0  0
  -16.1660  -16.0250  -24.3070 C   0  0  0  0  0  0  0  0  0  0  0  0
  -15.8370  -17.3260  -24.5440 N   0  0  0  0  0  0  0  0  0  0  0  0
  -16.8690  -15.6930  -23.3520 O   0  0  0  0  0  0  0  0  0  0  0  0
  -15.1970  -17.8750  -25.6410 C   0  0  0  0  0  0  0  0  0  0  0  0
  -15.2640  -11.5380  -26.1420 F   0  0  0  0  0  0  0  0  0  0  0  0
  -14.6570  -23.5140  -26.1510 N   0  0  0  0  0  0  0  0  0  0  0  0
  -15.7330  -23.9960  -27.1300 C   0  0  0  0  0  0  0  0  0  0  0  0
  -15.7270  -25.5230  -27.2650 C   0  0  0  0  0  0  0  0  0  0  0  0
  -14.4070  -25.9130  -27.9310 N   0  0  0  0  0  0  0  0  0  0  0  0
  -13.2500  -25.5880  -26.9830 C   0  0  0  0  0  0  0  0  0  0  0  0
  -13.2760  -24.0880  -26.5450 C   0  0  0  0  0  0  0  0  0  0  0  0
  -14.4070  -27.4170  -28.3080 C   0  0  0  0  0  0  0  0  0  0  0  0
  -15.0171  -19.3138  -27.9171 H   0  0  0  0  0  0  0  0  0  0  0  0
  -14.7636  -21.7664  -28.1606 H   0  0  0  0  0  0  0  0  0  0  0  0
  -14.6607  -22.1822  -23.8656 H   0  0  0  0  0  0  0  0  0  0  0  0
  -14.9543  -19.7296  -23.6153 H   0  0  0  0  0  0  0  0  0  0  0  0
  -14.0399  -15.2654  -28.4084 H   0  0  0  0  0  0  0  0  0  0  0  0
  -14.1917  -12.7878  -28.1533 H   0  0  0  0  0  0  0  0  0  0  0  0
  -16.2075  -13.2618  -24.3589 H   0  0  0  0  0  0  0  0  0  0  0  0
  -16.1012  -17.9926  -23.8045 H   0  0  0  0  0  0  0  0  0  0  0  0
  -16.7191  -23.6735  -26.7644 H   0  0  0  0  0  0  0  0  0  0  0  0
  -15.5200  -23.5616  -28.1179 H   0  0  0  0  0  0  0  0  0  0  0  0
  -15.8001  -25.9894  -26.2715 H   0  0  0  0  0  0  0  0  0  0  0  0
  -16.5831  -25.8653  -27.8650 H   0  0  0  0  0  0  0  0  0  0  0  0
  -13.3307  -26.2234  -26.0887 H   0  0  0  0  0  0  0  0  0  0  0  0
  -12.3047  -25.7777  -27.5126 H   0  0  0  0  0  0  0  0  0  0  0  0
  -12.8897  -23.4876  -27.3818 H   0  0  0  0  0  0  0  0  0  0  0  0
  -12.6657  -24.0382  -25.6312 H   0  0  0  0  0  0  0  0  0  0  0  0
  -13.3699  -27.7727  -28.3972 H   0  0  0  0  0  0  0  0  0  0  0  0
  -14.9255  -27.9910  -27.5260 H   0  0  0  0  0  0  0  0  0  0  0  0
  -14.9255  -27.5543  -29.2683 H   0  0  0  0  0  0  0  0  0  0  0  0
  1 17  1  0
  1  6  1  0
  1  2  2  0
  2  3  1  0
  3  4  2  0
  4  5  1  0
  4 19  1  0
  5  6  2  0
  7  9  2  0
  7  8  1  0
  8 10  2  0
  8 11  1  0
  9 12  1  0
 10 13  1  0
 10 14  1  0
 11 17  2  0
 12 18  1  0
 12 13  2  0
 14 16  2  0
 14 15  1  0
 15 17  1  0
 19 20  1  0
 19 24  1  0
 20 21  1  0
 21 22  1  0
 22 23  1  0
 22 25  1  0
 23 24  1  0
  2 26  1  0
  3 27  1  0
  5 28  1  0
  6 29  1  0
  7 30  1  0
  9 31  1  0
 13 32  1  0
 15 33  1  0
 20 34  1  0
 20 35  1  0
 21 36  1  0
 21 37  1  0
 23 38  1  0
 23 39  1  0
 24 40  1  0
 24 41  1  0
 25 42  1  0
 25 43  1  0
 25 44  1  0
M  END
>  <s_m_entry_id>  (1) 
2336

>  <MODEL>  (1) 
1

>  <REMARK>  (1) 
 VINA RESULT:   -11.655      0.000      0.000
 INTER + INTRA:         -13.401
 INTER:                 -13.018
 INTRA:                  -0.383
 UNBOUND:                -0.383
  Name = 8a
  3 active torsions:
  status: ('A' for Active; 'I' for Inactive)
    1  A    between atoms: C_11  and  C_12
    2  A    between atoms: C_15  and  N_19
    3  A    between atoms: N_22  and  C_25
                            x       y       z     vdW  Elec       q    Type
                         _______ _______ _______ _____ _____    ______ ____

>  <TORSDO>  (1) 
F 2

>  <s_m_Source_Path>  (1) 
/projects/mai/users/kmzp800_harry/pmx_colab/docking_jobs/tnks2/vina_prep/output

>  <s_m_Source_File>  (1) 
tnks_naive_vina.sdf

>  <i_m_Source_File_Index>  (1) 
9

>  <index_string>  (1) 
8:0:0

$$$$
