10:0:0
     RDKit          3D

 56 59  0  0  1  0  0  0  0  0999 V2000
   33.0030   37.0540   21.9540 N   0  0  0  0  0  0  0  0  0  0  0  0
   33.3170   36.9210   20.6240 C   0  0  0  0  0  0  0  0  0  0  0  0
   33.5540   37.9410   19.9200 O   0  0  0  0  0  0  0  0  0  0  0  0
   33.3850   35.6510   20.0280 C   0  0  0  0  0  0  0  0  0  0  0  0
   33.1660   34.5170   20.8190 C   0  0  0  0  0  0  0  0  0  0  0  0
   32.8750   34.6610   22.1680 C   0  0  0  0  0  0  0  0  0  0  0  0
   32.6640   33.5520   22.9810 C   0  0  0  0  0  0  0  0  0  0  0  0
   32.3930   33.7250   24.3000 N   0  0  0  0  0  0  0  0  0  0  0  0
   32.3280   34.9710   24.8470 C   0  0  0  0  0  0  0  0  0  0  0  0
   32.0460   35.1430   26.2360 N   0  0  0  0  0  0  0  0  0  0  0  0
   32.5340   36.0650   24.0660 N   0  0  0  0  0  0  0  0  0  0  0  0
   32.8020   35.9450   22.7350 C   0  0  0  0  0  0  0  0  0  0  0  0
   31.7710   34.0270   27.1330 C   0  0  0  0  0  0  0  0  0  0  0  0
   30.6600   34.4090   28.1240 C   0  0  0  0  0  0  0  0  0  0  0  0
   31.2010   35.1380   29.3640 C   0  0  0  0  0  0  0  0  0  0  0  0
   32.5160   35.5880   29.1600 O   0  0  0  0  0  0  0  0  0  0  0  0
   33.3150   34.4330   29.1270 C   0  0  0  0  0  0  0  0  0  0  0  0
   33.0650   33.6170   27.8480 C   0  0  0  0  0  0  0  0  0  0  0  0
   32.9170   38.3930   22.5500 C   0  0  0  0  0  0  0  0  0  0  0  0
   34.2900   38.9650   22.9180 C   0  0  0  0  0  0  0  0  0  0  0  0
   35.3070   37.8450   22.8590 C   0  0  0  0  0  0  0  0  0  0  0  0
   34.2860   39.5380   24.3220 C   0  0  0  0  0  0  0  0  0  0  0  0
   34.6630   39.9600   22.0150 O   0  0  0  0  0  0  0  0  0  0  0  0
   33.7120   35.5420   18.6680 O   0  0  0  0  0  0  0  0  0  0  0  0
   35.0100   35.6220   18.1450 C   0  0  0  0  0  0  0  0  0  0  0  0
   36.0740   35.8320   19.0300 C   0  0  0  0  0  0  0  0  0  0  0  0
   37.3840   35.9270   18.5520 C   0  0  0  0  0  0  0  0  0  0  0  0
   37.6380   35.8220   17.1830 C   0  0  0  0  0  0  0  0  0  0  0  0
   38.9080   35.9130   16.7210 F   0  0  0  0  0  0  0  0  0  0  0  0
   36.5810   35.6390   16.2890 C   0  0  0  0  0  0  0  0  0  0  0  0
   35.2680   35.5420   16.7620 C   0  0  0  0  0  0  0  0  0  0  0  0
   34.2550   35.4260   15.8680 F   0  0  0  0  0  0  0  0  0  0  0  0
   33.2245   33.5136   20.3719 H   0  0  0  0  0  0  0  0  0  0  0  0
   32.7166   32.5385   22.5566 H   0  0  0  0  0  0  0  0  0  0  0  0
   32.0364   36.0981   26.6215 H   0  0  0  0  0  0  0  0  0  0  0  0
   31.4122   33.1606   26.5580 H   0  0  0  0  0  0  0  0  0  0  0  0
   29.9427   35.0678   27.6127 H   0  0  0  0  0  0  0  0  0  0  0  0
   30.1830   33.4785   28.4655 H   0  0  0  0  0  0  0  0  0  0  0  0
   30.5563   36.0025   29.5808 H   0  0  0  0  0  0  0  0  0  0  0  0
   31.2033   34.4320   30.2076 H   0  0  0  0  0  0  0  0  0  0  0  0
   34.3739   34.7287   29.1621 H   0  0  0  0  0  0  0  0  0  0  0  0
   33.0567   33.8073   29.9940 H   0  0  0  0  0  0  0  0  0  0  0  0
   32.9976   32.5524   28.1163 H   0  0  0  0  0  0  0  0  0  0  0  0
   33.9019   33.8086   27.1604 H   0  0  0  0  0  0  0  0  0  0  0  0
   32.4358   39.0694   21.8282 H   0  0  0  0  0  0  0  0  0  0  0  0
   32.3330   38.3070   23.4782 H   0  0  0  0  0  0  0  0  0  0  0  0
   35.5805   37.5438   23.8810 H   0  0  0  0  0  0  0  0  0  0  0  0
   34.8748   36.9849   22.3266 H   0  0  0  0  0  0  0  0  0  0  0  0
   36.2046   38.1925   22.3266 H   0  0  0  0  0  0  0  0  0  0  0  0
   34.2917   38.7164   25.0534 H   0  0  0  0  0  0  0  0  0  0  0  0
   35.1798   40.1629   24.4655 H   0  0  0  0  0  0  0  0  0  0  0  0
   33.3836   40.1504   24.4655 H   0  0  0  0  0  0  0  0  0  0  0  0
   34.9634   40.7614   22.5126 H   0  0  0  0  0  0  0  0  0  0  0  0
   35.8779   35.9228   20.1086 H   0  0  0  0  0  0  0  0  0  0  0  0
   38.2154   36.0846   19.2548 H   0  0  0  0  0  0  0  0  0  0  0  0
   36.7814   35.5709   15.2096 H   0  0  0  0  0  0  0  0  0  0  0  0
  1 19  1  0
  1 12  1  0
  1  2  1  0
  2  3  2  0
  2  4  1  0
  4  5  2  0
  4 24  1  0
  5  6  1  0
  6 12  2  0
  6  7  1  0
  7  8  2  0
  8  9  1  0
  9 10  1  0
  9 11  2  0
 10 13  1  0
 11 12  1  0
 13 18  1  0
 13 14  1  0
 14 15  1  0
 15 16  1  0
 16 17  1  0
 17 18  1  0
 19 20  1  0
 20 22  1  0
 20 21  1  0
 20 23  1  0
 24 25  1  0
 25 26  2  0
 25 31  1  0
 26 27  1  0
 27 28  2  0
 28 29  1  0
 28 30  1  0
 30 31  2  0
 31 32  1  0
  5 33  1  0
  7 34  1  0
 10 35  1  0
 13 36  1  0
 14 37  1  0
 14 38  1  0
 15 39  1  0
 15 40  1  0
 17 41  1  0
 17 42  1  0
 18 43  1  0
 18 44  1  0
 19 45  1  0
 19 46  1  0
 21 47  1  0
 21 48  1  0
 21 49  1  0
 22 50  1  0
 22 51  1  0
 22 52  1  0
 23 53  1  0
 26 54  1  0
 27 55  1  0
 30 56  1  0
M  END
>  <s_m_entry_id>  (1) 
60

>  <MODEL>  (1) 
1

>  <REMARK>  (1) 
 VINA RESULT:    -8.511      0.000      0.000
 INTER + INTRA:         -11.221
 INTER:                 -10.858
 INTRA:                  -0.363
 UNBOUND:                 0.027
  Name = /scratch/kmzp800/tmpcwnn04hf/tmpnqtovj0u.pdb
  8 active torsions:
  status: ('A' for Active; 'I' for Inactive)
    1  A    between atoms: O1_1  and  C1_2
    2  A    between atoms: C1_2  and  C2_3
    3  A    between atoms: C1_2  and  C3_4
    4  A    between atoms: C1_2  and  C4_5
    5  A    between atoms: C4_5  and  N1_6
    6  A    between atoms: C6_9  and  O3_10
    7  A    between atoms: O3_10  and  C7_11
    8  A    between atoms: N3_24  and  C17_25
                            x       y       z     vdW  Elec       q    Type
                         _______ _______ _______ _____ _____    ______ ____

>  <TORSDO>  (1) 
F 6

>  <grid_id>  (1) 
p38-prepared

>  <grid_path>  (1) 
/projects/mai/users/kmzp800_harry/pmx_colab/docking_jobs/p38/vina_docking/input_files/p38_vina.pdbqt

>  <grid_filename>  (1) 
p38_vina.pdbqt

>  <docking_score>  (1) 
-8.511

>  <compound_name>  (1) 
lig_p38a_2r

>  <index_string>  (1) 
10:0:0

$$$$
