7:0:0
     RDKit          3D

 39 41  0  0  1  0  0  0  0  0999 V2000
  -14.8491  -16.9877  -26.7585 N   0  0  0  0  0  0  0  0  0  0  0  0
  -15.3650  -17.7734  -25.8552 C   0  0  0  0  0  0  0  0  0  0  0  0
  -16.1286  -17.2462  -24.8126 N   0  0  0  0  0  0  0  0  0  0  0  0
  -16.3583  -15.9488  -24.5975 C   0  0  0  0  0  0  0  0  0  0  0  0
  -17.0066  -15.5727  -23.6306 O   0  0  0  0  0  0  0  0  0  0  0  0
  -15.1966  -19.2503  -25.9386 C   0  0  0  0  0  0  0  0  0  0  0  0
  -14.7815  -19.8386  -27.1450 C   0  0  0  0  0  0  0  0  0  0  0  0
  -14.5566  -21.2161  -27.2239 C   0  0  0  0  0  0  0  0  0  0  0  0
  -14.7524  -22.0524  -26.1073 C   0  0  0  0  0  0  0  0  0  0  0  0
  -15.2082  -21.4656  -24.9053 C   0  0  0  0  0  0  0  0  0  0  0  0
  -15.4326  -20.0810  -24.8226 C   0  0  0  0  0  0  0  0  0  0  0  0
  -14.4220  -23.5453  -26.1444 C   0  0  0  0  0  0  0  0  0  0  0  0
  -15.0402  -15.5976  -26.6816 C   0  0  0  0  0  0  0  0  0  0  0  0
  -15.7558  -15.0192  -25.6057 C   0  0  0  0  0  0  0  0  0  0  0  0
  -15.8652  -13.6175  -25.4955 C   0  0  0  0  0  0  0  0  0  0  0  0
  -15.2446  -12.7954  -26.4563 C   0  0  0  0  0  0  0  0  0  0  0  0
  -14.5336  -13.3630  -27.5316 C   0  0  0  0  0  0  0  0  0  0  0  0
  -14.4483  -14.7631  -27.6497 C   0  0  0  0  0  0  0  0  0  0  0  0
  -13.2561  -23.7737  -25.1639 C   0  0  0  0  0  0  0  0  0  0  0  0
  -13.9977  -24.0672  -27.5347 C   0  0  0  0  0  0  0  0  0  0  0  0
  -15.6783  -24.3477  -25.7494 C   0  0  0  0  0  0  0  0  0  0  0  0
  -16.5708  -17.8950  -24.1727 H   0  0  0  0  0  0  0  0  0  0  0  0
  -14.5914  -19.2328  -28.0200 H   0  0  0  0  0  0  0  0  0  0  0  0
  -14.1896  -21.5727  -28.1664 H   0  0  0  0  0  0  0  0  0  0  0  0
  -15.3662  -22.0705  -24.0245 H   0  0  0  0  0  0  0  0  0  0  0  0
  -15.7578  -19.6733  -23.8779 H   0  0  0  0  0  0  0  0  0  0  0  0
  -16.4083  -13.1697  -24.6743 H   0  0  0  0  0  0  0  0  0  0  0  0
  -15.2999  -11.7223  -26.3735 H   0  0  0  0  0  0  0  0  0  0  0  0
  -14.0600  -12.7207  -28.2642 H   0  0  0  0  0  0  0  0  0  0  0  0
  -13.8963  -15.1957  -28.4699 H   0  0  0  0  0  0  0  0  0  0  0  0
  -12.8468  -24.7734  -25.2405 H   0  0  0  0  0  0  0  0  0  0  0  0
  -13.5524  -23.6153  -24.1275 H   0  0  0  0  0  0  0  0  0  0  0  0
  -12.4385  -23.0848  -25.3763 H   0  0  0  0  0  0  0  0  0  0  0  0
  -14.8117  -23.9733  -28.2533 H   0  0  0  0  0  0  0  0  0  0  0  0
  -13.1160  -23.5674  -27.9384 H   0  0  0  0  0  0  0  0  0  0  0  0
  -13.7516  -25.1304  -27.4908 H   0  0  0  0  0  0  0  0  0  0  0  0
  -16.5373  -24.0320  -26.3401 H   0  0  0  0  0  0  0  0  0  0  0  0
  -15.5593  -25.4145  -25.9384 H   0  0  0  0  0  0  0  0  0  0  0  0
  -15.9380  -24.2221  -24.6981 H   0  0  0  0  0  0  0  0  0  0  0  0
  1  2  2  0
  1 13  1  0
  2  3  1  0
  2  6  1  0
  3  4  1  0
  3 22  1  0
  4  5  2  0
  4 14  1  0
  6  7  2  0
  6 11  1  0
  7  8  1  0
  7 23  1  0
  8  9  2  0
  8 24  1  0
  9 10  1  0
  9 12  1  0
 10 11  2  0
 10 25  1  0
 11 26  1  0
 12 19  1  0
 12 20  1  0
 12 21  1  0
 13 14  2  0
 13 18  1  0
 14 15  1  0
 15 16  2  0
 15 27  1  0
 16 17  1  0
 16 28  1  0
 17 18  2  0
 17 29  1  0
 18 30  1  0
 19 31  1  0
 19 32  1  0
 19 33  1  0
 20 34  1  0
 20 35  1  0
 20 36  1  0
 21 37  1  0
 21 38  1  0
 21 39  1  0
M  END
>  <s_m_entry_id>  (1) 
449

>  <Name>  (1) 
3a

>  <IC50[nM]>  (1) 
8.7

>  <s_m_Source_Path>  (1) 
/projects/mai/users/kmzp800_harry/pmx_colab/docking_jobs/tnks2

>  <s_m_Source_File>  (1) 
tnks2_lig.sdf

>  <i_m_Source_File_Index>  (1) 
8

>  <s_m_job_name>  (1) 
glide-dock_SP_tnks2_core_const

>  <r_i_docking_score>  (1) 
-10.5914366202532

>  <r_i_glide_gscore>  (1) 
-10.5914366202532

>  <r_i_glide_emodel>  (1) 
-56.1364701542099

>  <index_string>  (1) 
7:0:0

$$$$
