22:0:0
     RDKit          3D

 29 30  0  0  1  0  0  0  0  0999 V2000
   42.9250   13.4300   16.1630 C   0  0  0  0  0  0  0  0  0  0  0  0
   43.8410   14.8450   16.1570 S   0  0  0  0  0  0  0  0  0  0  0  0
   43.0720   15.5830   14.8640 C   0  0  0  0  0  0  0  0  0  0  0  0
   42.0640   14.7370   14.4060 C   0  0  0  0  0  0  0  0  0  0  0  0
   41.9860   13.5130   15.1200 C   0  0  0  0  0  0  0  0  0  0  0  0
   40.8560   12.0480   14.5920 Br  0  0  0  0  0  0  0  0  0  0  0  0
   43.3010   11.5530   19.4280 C   0  0  0  0  0  0  0  0  0  0  0  0
   43.1240   12.5860   18.5030 C   0  0  0  0  0  0  0  0  0  0  0  0
   43.1390   12.3220   17.1240 C   0  0  0  0  0  0  0  0  0  0  0  0
   43.3170   11.0000   16.6920 C   0  0  0  0  0  0  0  0  0  0  0  0
   43.4940    9.9650   17.6150 C   0  0  0  0  0  0  0  0  0  0  0  0
   43.4860   10.2430   18.9840 C   0  0  0  0  0  0  0  0  0  0  0  0
   43.6780    8.6310   17.1600 N   0  0  0  0  0  0  0  0  0  0  0  0
   43.4130   16.9130   14.3360 C   0  0  0  0  0  0  0  0  0  0  0  0
   43.3820   17.9180   15.0920 O   0  0  0  0  0  0  0  0  0  0  0  0
   43.7700   17.0750   13.0030 O   0  0  0  0  0  0  0  0  0  0  0  0
   41.2490   15.1040   13.3250 O   0  0  0  0  0  0  0  0  0  0  0  0
   40.0970   15.9280   13.4350 C   0  0  0  0  0  0  0  0  0  0  0  0
   40.1990   17.0790   12.4930 C   0  0  0  0  0  0  0  0  0  0  0  0
   41.0680   17.0740   11.5830 O   0  0  0  0  0  0  0  0  0  0  0  0
   39.3090   18.1400   12.5960 O   0  0  0  0  0  0  0  0  0  0  0  0
   43.2945   11.7727   20.5058 H   0  0  0  0  0  0  0  0  0  0  0  0
   42.9715   13.6156   18.8589 H   0  0  0  0  0  0  0  0  0  0  0  0
   43.3174   10.7748   15.6153 H   0  0  0  0  0  0  0  0  0  0  0  0
   43.6254    9.4298   19.7115 H   0  0  0  0  0  0  0  0  0  0  0  0
   43.8084    7.8683   17.8399 H   0  0  0  0  0  0  0  0  0  0  0  0
   43.6809    8.4270   16.1504 H   0  0  0  0  0  0  0  0  0  0  0  0
   39.2020   15.3367   13.1914 H   0  0  0  0  0  0  0  0  0  0  0  0
   40.0243   16.3100   14.4640 H   0  0  0  0  0  0  0  0  0  0  0  0
  1  9  1  0
  1  2  1  0
  1  5  2  0
  2  3  1  0
  3  4  2  0
  3 14  1  0
  4  5  1  0
  4 17  1  0
  5  6  1  0
  7  8  2  0
  7 12  1  0
  7 22  1  0
  8  9  1  0
  8 23  1  0
  9 10  2  0
 10 11  1  0
 10 24  1  0
 11 12  2  0
 11 13  1  0
 12 25  1  0
 13 26  1  0
 13 27  1  0
 14 15  1  0
 14 16  2  0
 17 18  1  0
 18 19  1  0
 18 28  1  0
 18 29  1  0
 19 21  1  0
 19 20  2  0
M  CHG  2  15  -1  21  -1
M  END
>  <s_m_entry_id>  (1) 
1368

>  <MODEL>  (1) 
1

>  <REMARK>  (1) 
 VINA RESULT:    -6.986      0.000      0.000
 INTER + INTRA:          -9.573
 INTER:                  -9.233
 INTRA:                  -0.340
 UNBOUND:                -0.340
  Name = /scratch/kmzp800/tmpgp1cpwz4/tmpmhopne5k.pdb
  6 active torsions:
  status: ('A' for Active; 'I' for Inactive)
    1  A    between atoms: C3_3  and  C4_4
    2  A    between atoms: C5_6  and  C6_7
    3  A    between atoms: C7_10  and  O3_11
    4  A    between atoms: O3_11  and  C8_12
    5  A    between atoms: C8_12  and  C9_13
    6  A    between atoms: C12_19  and  N1_20
                            x       y       z     vdW  Elec       q    Type
                         _______ _______ _______ _____ _____    ______ ____

>  <TORSDO>  (1) 
F 6

>  <grid_id>  (1) 
ptp1b-prepared

>  <grid_path>  (1) 
ptp1b_vina.pdbqt

>  <grid_filename>  (1) 
ptp1b_vina.pdbqt

>  <docking_score>  (1) 
-6.986

>  <compound_name>  (1) 
lig_23466

>  <index_string>  (1) 
22:0:0

>  <s_m_Source_Path>  (1) 
/projects/mai/users/kmzp800_harry/pmx_colab/docking_jobs/ptp1b/vina_prep

>  <s_m_Source_File>  (1) 
ptp1b_vina_naive_confs.sdf

>  <i_m_Source_File_Index>  (1) 
23

$$$$
