24:0:0
     RDKit          3D

 35 37  0  0  1  0  0  0  0  0999 V2000
   34.1279   38.7454   26.9530 C   0  0  0  0  0  0  0  0  0  0  0  0
   34.1521   39.5493   25.7414 N   0  0  0  0  0  0  0  0  0  0  0  0
   34.1894   39.0273   24.4677 C   0  0  0  0  0  0  0  0  0  0  0  0
   34.1521   39.9109   23.4711 N   0  0  0  0  0  0  0  0  0  0  0  0
   34.1061   39.4039   22.2218 C   0  0  0  0  0  0  0  0  0  0  0  0
   34.2465   37.7024   24.3493 N   0  0  0  0  0  0  0  0  0  0  0  0
   34.2160   37.1654   23.1105 C   0  0  0  0  0  0  0  0  0  0  0  0
   34.1147   38.0152   21.9890 C   0  0  0  0  0  0  0  0  0  0  0  0
   34.2723   35.7480   22.8974 N   0  0  0  0  0  0  0  0  0  0  0  0
   34.4498   34.8930   24.0833 C   0  0  0  0  0  0  0  0  0  0  0  0
   34.1477   35.1699   21.6670 C   0  0  0  0  0  0  0  0  0  0  0  0
   34.1522   33.9493   21.5117 O   0  0  0  0  0  0  0  0  0  0  0  0
   34.0204   36.0741   20.5216 C   0  0  0  0  0  0  0  0  0  0  0  0
   34.0077   37.4132   20.6679 C   0  0  0  0  0  0  0  0  0  0  0  0
   33.8770   35.5045   19.2865 O   0  0  0  0  0  0  0  0  0  0  0  0
   34.8945   35.5528   18.3587 C   0  0  0  0  0  0  0  0  0  0  0  0
   34.5500   35.1493   17.0520 C   0  0  0  0  0  0  0  0  0  0  0  0
   35.5053   35.1493   16.0186 C   0  0  0  0  0  0  0  0  0  0  0  0
   36.2347   35.9493   18.6262 C   0  0  0  0  0  0  0  0  0  0  0  0
   36.6461   36.3016   19.8678 F   0  0  0  0  0  0  0  0  0  0  0  0
   37.1867   35.9493   17.5878 C   0  0  0  0  0  0  0  0  0  0  0  0
   36.8245   35.5537   16.2890 C   0  0  0  0  0  0  0  0  0  0  0  0
   37.7521   35.5468   15.3083 F   0  0  0  0  0  0  0  0  0  0  0  0
   34.0759   39.3897   27.8307 H   0  0  0  0  0  0  0  0  0  0  0  0
   35.0282   38.1343   27.0260 H   0  0  0  0  0  0  0  0  0  0  0  0
   33.2593   38.0860   26.9584 H   0  0  0  0  0  0  0  0  0  0  0  0
   34.0742   40.5599   25.8247 H   0  0  0  0  0  0  0  0  0  0  0  0
   34.0432   40.1118   21.4082 H   0  0  0  0  0  0  0  0  0  0  0  0
   34.7385   33.8645   23.8612 H   0  0  0  0  0  0  0  0  0  0  0  0
   35.2308   35.2908   24.7328 H   0  0  0  0  0  0  0  0  0  0  0  0
   33.5232   34.8594   24.6571 H   0  0  0  0  0  0  0  0  0  0  0  0
   33.8998   38.0655   19.8142 H   0  0  0  0  0  0  0  0  0  0  0  0
   33.5346   34.8393   16.8436 H   0  0  0  0  0  0  0  0  0  0  0  0
   35.2243   34.8397   15.0231 H   0  0  0  0  0  0  0  0  0  0  0  0
   38.2040   36.2513   17.7932 H   0  0  0  0  0  0  0  0  0  0  0  0
  1  2  1  0
  1 24  1  0
  1 25  1  0
  1 26  1  0
  2  3  1  0
  2 27  1  0
  3  4  2  0
  3  6  1  0
  4  5  1  0
  5  8  2  0
  5 28  1  0
  6  7  2  0
  7  8  1  0
  7  9  1  0
  8 14  1  0
  9 10  1  0
  9 11  1  0
 10 29  1  0
 10 30  1  0
 10 31  1  0
 11 12  2  0
 11 13  1  0
 13 14  2  0
 13 15  1  0
 14 32  1  0
 15 16  1  0
 16 17  2  0
 16 19  1  0
 17 18  1  0
 17 33  1  0
 18 22  2  0
 18 34  1  0
 19 20  1  0
 19 21  2  0
 21 22  1  0
 21 35  1  0
 22 23  1  0
M  END
>  <s_m_entry_id>  (1) 
740

>  <i_f3d_flags>  (1) 
0

>  <r_lp_tautomer_probability>  (1) 
1

>  <r_epik_Ionization_Penalty>  (1) 
  0.0000

>  <r_epik_State_Penalty>  (1) 
  0.0000

>  <i_epik_Tot_Q>  (1) 
0

>  <s_m_job_name>  (1) 
glide-dock_SP_p38_all_ligs_no_cons_10_poses

>  <r_i_docking_score>  (1) 
-7.41087951998292

>  <r_i_glide_gscore>  (1) 
-7.41087951998292

>  <r_i_glide_emodel>  (1) 
-51.480160313148

>  <index_string>  (1) 
24:0:0

$$$$
