23:0:0
     RDKit          3D

 45 47  0  0  1  0  0  0  0  0999 V2000
   32.0090   37.8180   25.8000 N   0  0  0  0  0  0  0  0  0  0  0  0
   32.3610   37.6210   24.4290 C   0  0  0  0  0  0  0  0  0  0  0  0
   32.6910   38.6810   23.6400 N   0  0  0  0  0  0  0  0  0  0  0  0
   33.0300   38.5040   22.3360 C   0  0  0  0  0  0  0  0  0  0  0  0
   33.0430   37.2220   21.7940 C   0  0  0  0  0  0  0  0  0  0  0  0
   33.3810   37.0080   20.4630 C   0  0  0  0  0  0  0  0  0  0  0  0
   33.3750   35.7140   19.9440 C   0  0  0  0  0  0  0  0  0  0  0  0
   33.0630   34.6340   20.7980 C   0  0  0  0  0  0  0  0  0  0  0  0
   33.1190   33.4520   20.3570 O   0  0  0  0  0  0  0  0  0  0  0  0
   32.7230   34.8620   22.1060 N   0  0  0  0  0  0  0  0  0  0  0  0
   32.3880   33.7330   22.9690 C   0  0  0  0  0  0  0  0  0  0  0  0
   32.7060   36.1330   22.6160 C   0  0  0  0  0  0  0  0  0  0  0  0
   32.3740   36.3630   23.9170 N   0  0  0  0  0  0  0  0  0  0  0  0
   31.9080   39.1420   26.4070 C   0  0  0  0  0  0  0  0  0  0  0  0
   32.7460   39.2530   27.6800 C   0  0  0  0  0  0  0  0  0  0  0  0
   34.0850   38.5600   27.4940 C   0  0  0  0  0  0  0  0  0  0  0  0
   32.0220   38.6370   28.8620 C   0  0  0  0  0  0  0  0  0  0  0  0
   32.9750   40.6010   27.9480 O   0  0  0  0  0  0  0  0  0  0  0  0
   33.7270   35.5370   18.5980 O   0  0  0  0  0  0  0  0  0  0  0  0
   35.0290   35.6170   18.0840 C   0  0  0  0  0  0  0  0  0  0  0  0
   36.0840   35.8310   18.9780 C   0  0  0  0  0  0  0  0  0  0  0  0
   37.3980   35.9280   18.5140 C   0  0  0  0  0  0  0  0  0  0  0  0
   37.6660   35.8200   17.1480 C   0  0  0  0  0  0  0  0  0  0  0  0
   38.9400   35.9130   16.6980 F   0  0  0  0  0  0  0  0  0  0  0  0
   36.6190   35.6300   16.2430 C   0  0  0  0  0  0  0  0  0  0  0  0
   35.3020   35.5300   16.7020 C   0  0  0  0  0  0  0  0  0  0  0  0
   34.3020   35.3950   15.7970 F   0  0  0  0  0  0  0  0  0  0  0  0
   31.8186   36.9914   26.3843 H   0  0  0  0  0  0  0  0  0  0  0  0
   33.2931   39.3703   21.7113 H   0  0  0  0  0  0  0  0  0  0  0  0
   33.6528   37.8582   19.8201 H   0  0  0  0  0  0  0  0  0  0  0  0
   32.4783   34.0372   24.0223 H   0  0  0  0  0  0  0  0  0  0  0  0
   31.3556   33.4111   22.7675 H   0  0  0  0  0  0  0  0  0  0  0  0
   33.0777   32.9001   22.7675 H   0  0  0  0  0  0  0  0  0  0  0  0
   32.2598   39.8922   25.6836 H   0  0  0  0  0  0  0  0  0  0  0  0
   30.8554   39.3129   26.6769 H   0  0  0  0  0  0  0  0  0  0  0  0
   34.5210   38.3344   28.4784 H   0  0  0  0  0  0  0  0  0  0  0  0
   33.9390   37.6243   26.9345 H   0  0  0  0  0  0  0  0  0  0  0  0
   34.7646   39.2196   26.9345 H   0  0  0  0  0  0  0  0  0  0  0  0
   32.4625   39.0118   29.7977 H   0  0  0  0  0  0  0  0  0  0  0  0
   30.9572   38.9103   28.8228 H   0  0  0  0  0  0  0  0  0  0  0  0
   32.1212   37.5422   28.8228 H   0  0  0  0  0  0  0  0  0  0  0  0
   32.9992   40.7433   28.9274 H   0  0  0  0  0  0  0  0  0  0  0  0
   35.8770   35.9235   20.0544 H   0  0  0  0  0  0  0  0  0  0  0  0
   38.2217   36.0895   19.2249 H   0  0  0  0  0  0  0  0  0  0  0  0
   36.8312   35.5588   15.1660 H   0  0  0  0  0  0  0  0  0  0  0  0
  1 14  1  0
  1  2  1  0
  1 28  1  0
  2  3  2  0
  2 13  1  0
  3  4  1  0
  4  5  2  0
  4 29  1  0
  5 12  1  0
  5  6  1  0
  6  7  2  0
  6 30  1  0
  7  8  1  0
  7 19  1  0
  8 10  1  0
  8  9  2  0
 10 12  1  0
 10 11  1  0
 11 31  1  0
 11 32  1  0
 11 33  1  0
 12 13  2  0
 14 15  1  0
 14 34  1  0
 14 35  1  0
 15 18  1  0
 15 17  1  0
 15 16  1  0
 16 36  1  0
 16 37  1  0
 16 38  1  0
 17 39  1  0
 17 40  1  0
 17 41  1  0
 18 42  1  0
 19 20  1  0
 20 21  2  0
 20 26  1  0
 21 22  1  0
 21 43  1  0
 22 23  2  0
 22 44  1  0
 23 24  1  0
 23 25  1  0
 25 26  2  0
 25 45  1  0
 26 27  1  0
M  END
>  <s_m_entry_id>  (1) 
1378

>  <MODEL>  (1) 
1

>  <REMARK>  (1) 
 VINA RESULT:    -8.114      0.000      0.000
 INTER + INTRA:         -10.699
 INTER:                 -10.249
 INTRA:                  -0.450
 UNBOUND:                -0.450
  Name = /scratch/kmzp800/tmpvjn9zz_4/tmpzngyckm7.pdb
  8 active torsions:
  status: ('A' for Active; 'I' for Inactive)
    1  A    between atoms: O1_1  and  C1_2
    2  A    between atoms: C1_2  and  C2_3
    3  A    between atoms: C1_2  and  C3_4
    4  A    between atoms: C1_2  and  C4_5
    5  A    between atoms: C4_5  and  N1_6
    6  A    between atoms: C9_12  and  O2_13
    7  A    between atoms: O2_13  and  C10_14
    8  A    between atoms: N3_24  and  C17_25
                            x       y       z     vdW  Elec       q    Type
                         _______ _______ _______ _____ _____    ______ ____

>  <TORSDO>  (1) 
F 5

>  <grid_id>  (1) 
p38-prepared

>  <grid_path>  (1) 
/projects/mai/users/kmzp800_harry/pmx_colab/docking_jobs/p38/vina_docking/input_files/p38_vina.pdbqt

>  <grid_filename>  (1) 
p38_vina.pdbqt

>  <docking_score>  (1) 
-8.114

>  <compound_name>  (1) 
lig_p38a_2y

>  <index_string>  (1) 
23:0:0

>  <s_m_Source_Path>  (1) 
/projects/mai/users/kmzp800_harry/pmx_colab/docking_jobs/p38

>  <s_m_Source_File>  (1) 
p38_confs_vina_naive.sdf

>  <i_m_Source_File_Index>  (1) 
25

$$$$
