1:0:0
     RDKit          3D

 48 51  0  0  1  0  0  0  0  0999 V2000
    5.5910   -0.5900   16.2430 C   0  0  0  0  0  0  0  0  0  0  0  0
    4.3290   -1.0840   16.1800 N   0  0  0  0  0  0  0  0  0  0  0  0
    3.7500   -0.3510   15.2140 C   0  0  0  0  0  0  0  0  0  0  0  0
    2.4400   -0.4600   14.7550 C   0  0  0  0  0  0  0  0  0  0  0  0
    1.5490   -1.4340   15.3200 N   0  0  0  0  0  0  0  0  0  0  0  0
    2.0450    0.3860   13.7590 N   0  0  0  0  0  0  0  0  0  0  0  0
    2.8890    1.3190   13.2140 C   0  0  0  0  0  0  0  0  0  0  0  0
    4.2090    1.4080   13.6970 C   0  0  0  0  0  0  0  0  0  0  0  0
    4.5740    0.5570   14.6850 N   0  0  0  0  0  0  0  0  0  0  0  0
    5.7510    0.4340   15.3130 C   0  0  0  0  0  0  0  0  0  0  0  0
    0.1810   -1.6680   14.9570 C   0  0  0  0  0  0  0  0  0  0  0  0
   -0.4640   -2.8820   15.2310 C   0  0  0  0  0  0  0  0  0  0  0  0
   -1.7970   -3.0710   14.8620 C   0  0  0  0  0  0  0  0  0  0  0  0
   -2.5070   -2.0490   14.2130 C   0  0  0  0  0  0  0  0  0  0  0  0
   -1.8680   -0.8320   13.9340 C   0  0  0  0  0  0  0  0  0  0  0  0
   -0.5260   -0.6510   14.3110 C   0  0  0  0  0  0  0  0  0  0  0  0
   -3.8440   -2.2220   13.8350 O   0  0  0  0  0  0  0  0  0  0  0  0
   -4.2510   -3.1650   12.8540 C   0  0  0  0  0  0  0  0  0  0  0  0
   -2.5810    0.1830   13.2870 O   0  0  0  0  0  0  0  0  0  0  0  0
   -2.0630    0.8970   12.1730 C   0  0  0  0  0  0  0  0  0  0  0  0
    2.4090    2.2110   12.1370 C   0  0  0  0  0  0  0  0  0  0  0  0
    1.0420    2.4980   12.0190 C   0  0  0  0  0  0  0  0  0  0  0  0
    0.5790    3.3400   11.0050 C   0  0  0  0  0  0  0  0  0  0  0  0
    1.4760    3.9090   10.0900 C   0  0  0  0  0  0  0  0  0  0  0  0
    2.8430    3.6230   10.2060 C   0  0  0  0  0  0  0  0  0  0  0  0
    3.3060    2.7810   11.2210 C   0  0  0  0  0  0  0  0  0  0  0  0
    0.9860    4.7960    9.0220 C   0  0  0  0  0  0  0  0  0  0  0  0
    1.6050    5.8580    8.7440 O   0  0  0  0  0  0  0  0  0  0  0  0
   -0.1900    4.4650    8.2900 N   0  0  0  0  0  0  0  0  0  0  0  0
    6.3737   -0.9464   16.9288 H   0  0  0  0  0  0  0  0  0  0  0  0
    1.9339   -2.0294   16.0672 H   0  0  0  0  0  0  0  0  0  0  0  0
    4.9178    2.1422   13.2865 H   0  0  0  0  0  0  0  0  0  0  0  0
    6.6614    1.0238   15.1305 H   0  0  0  0  0  0  0  0  0  0  0  0
    0.0829   -3.6898   15.7393 H   0  0  0  0  0  0  0  0  0  0  0  0
   -2.2942   -4.0274   15.0814 H   0  0  0  0  0  0  0  0  0  0  0  0
   -0.0257    0.3044   14.0944 H   0  0  0  0  0  0  0  0  0  0  0  0
   -4.6399   -4.0661   13.3507 H   0  0  0  0  0  0  0  0  0  0  0  0
   -5.0388   -2.7237   12.2258 H   0  0  0  0  0  0  0  0  0  0  0  0
   -3.3895   -3.4355   12.2258 H   0  0  0  0  0  0  0  0  0  0  0  0
   -1.4519    1.7393   12.5294 H   0  0  0  0  0  0  0  0  0  0  0  0
   -1.4411    0.2248   11.5636 H   0  0  0  0  0  0  0  0  0  0  0  0
   -2.8950    1.2796   11.5636 H   0  0  0  0  0  0  0  0  0  0  0  0
    0.3283    2.0568   12.7304 H   0  0  0  0  0  0  0  0  0  0  0  0
   -0.4961    3.5579   10.9240 H   0  0  0  0  0  0  0  0  0  0  0  0
    3.5560    4.0639    9.4938 H   0  0  0  0  0  0  0  0  0  0  0  0
    4.3813    2.5637   11.3022 H   0  0  0  0  0  0  0  0  0  0  0  0
   -0.5258    5.0912    7.5444 H   0  0  0  0  0  0  0  0  0  0  0  0
   -0.7046    3.5994    8.5062 H   0  0  0  0  0  0  0  0  0  0  0  0
  1  2  1  0
  1 10  2  0
  2  3  2  0
  3  4  1  0
  3  9  1  0
  4  5  1  0
  4  6  2  0
  5 11  1  0
  6  7  1  0
  7  8  2  0
  7 21  1  0
  8  9  1  0
  9 10  1  0
 11 12  2  0
 11 16  1  0
 12 13  1  0
 13 14  2  0
 14 15  1  0
 14 17  1  0
 15 16  2  0
 15 19  1  0
 17 18  1  0
 19 20  1  0
 21 22  2  0
 21 26  1  0
 22 23  1  0
 23 24  2  0
 24 25  1  0
 24 27  1  0
 25 26  2  0
 27 28  2  0
 27 29  1  0
  1 30  1  0
  5 31  1  0
  8 32  1  0
 10 33  1  0
 12 34  1  0
 13 35  1  0
 16 36  1  0
 18 37  1  0
 18 38  1  0
 18 39  1  0
 20 40  1  0
 20 41  1  0
 20 42  1  0
 22 43  1  0
 23 44  1  0
 25 45  1  0
 26 46  1  0
 29 47  1  0
 29 48  1  0
M  END
>  <s_m_entry_id>  (1) 
199

>  <MODEL>  (1) 
2

>  <REMARK>  (1) 
 VINA RESULT:    -9.297      1.757      6.530
 INTER + INTRA:         -11.781
 INTER:                 -11.506
 INTRA:                  -0.275
 UNBOUND:                 0.233
  Name = /scratch/kmzp800/tmpz02z9zbh/tmptzkh7zs7.pdb
  7 active torsions:
  status: ('A' for Active; 'I' for Inactive)
    1  A    between atoms: N2_5  and  C4_6
    2  A    between atoms: C7_9  and  O1_10
    3  A    between atoms: O1_10  and  C8_11
    4  A    between atoms: C9_12  and  O2_13
    5  A    between atoms: O2_13  and  C10_14
    6  A    between atoms: C12_17  and  C13_18
    7  A    between atoms: C16_21  and  C17_22
                            x       y       z     vdW  Elec       q    Type
                         _______ _______ _______ _____ _____    ______ ____

>  <TORSDO>  (1) 
F 5

>  <grid_id>  (1) 
syk-prepared

>  <grid_path>  (1) 
syk_vina.pdbqt

>  <grid_filename>  (1) 
syk_vina.pdbqt

>  <docking_score>  (1) 
-9.297

>  <compound_name>  (1) 
CHEMBL3259820

>  <index_string>  (1) 
1:0:0

>  <s_m_Source_Path>  (1) 
/projects/mai/users/kmzp800_harry/pmx_colab/docking_jobs/syk/vina_prep/output

>  <s_m_Source_File>  (1) 
ptp1b_docked_conformers.sdf

>  <i_m_Source_File_Index>  (1) 
23

$$$$
