42:0:0
     RDKit          3D

 52 57  0  0  1  0  0  0  0  0999 V2000
    5.8350   -0.4300   16.2640 C   0  0  0  0  0  0  0  0  0  0  0  0
    4.5810   -0.9490   16.2470 N   0  0  0  0  0  0  0  0  0  0  0  0
    3.9700   -0.2660   15.2640 C   0  0  0  0  0  0  0  0  0  0  0  0
    2.6530   -0.4170   14.8360 C   0  0  0  0  0  0  0  0  0  0  0  0
    1.7910   -1.3820   15.4570 N   0  0  0  0  0  0  0  0  0  0  0  0
    2.2240    0.3800   13.8140 N   0  0  0  0  0  0  0  0  0  0  0  0
    3.0400    1.3050   13.2150 C   0  0  0  0  0  0  0  0  0  0  0  0
    4.3670    1.4370   13.6680 C   0  0  0  0  0  0  0  0  0  0  0  0
    4.7670    0.6330   14.6810 N   0  0  0  0  0  0  0  0  0  0  0  0
    5.9580    0.5580   15.2900 C   0  0  0  0  0  0  0  0  0  0  0  0
    2.5240    2.1430   12.1140 C   0  0  0  0  0  0  0  0  0  0  0  0
    3.4220    2.6730   11.1510 C   0  0  0  0  0  0  0  0  0  0  0  0
    2.9620    3.4750   10.0900 C   0  0  0  0  0  0  0  0  0  0  0  0
    1.5940    3.7230   10.0290 C   0  0  0  0  0  0  0  0  0  0  0  0
    0.8400    4.4500    9.1390 C   0  0  0  0  0  0  0  0  0  0  0  0
   -0.4490    4.3570    9.5540 N   0  0  0  0  0  0  0  0  0  0  0  0
   -0.5250    3.6100   10.6530 N   0  0  0  0  0  0  0  0  0  0  0  0
    0.7230    3.2210   10.9450 C   0  0  0  0  0  0  0  0  0  0  0  0
    1.1430    2.4240   12.0070 C   0  0  0  0  0  0  0  0  0  0  0  0
    0.4210   -1.6550   15.1310 C   0  0  0  0  0  0  0  0  0  0  0  0
   -0.1680   -2.8190   15.6330 C   0  0  0  0  0  0  0  0  0  0  0  0
   -1.5010   -3.1200   15.3380 C   0  0  0  0  0  0  0  0  0  0  0  0
   -2.2690   -2.2600   14.5380 C   0  0  0  0  0  0  0  0  0  0  0  0
   -1.6710   -1.0940   14.0330 C   0  0  0  0  0  0  0  0  0  0  0  0
   -0.3390   -0.7940   14.3290 C   0  0  0  0  0  0  0  0  0  0  0  0
   -3.6400   -2.5740   14.2270 N   0  0  0  0  0  0  0  0  0  0  0  0
   -4.6820   -2.4450   15.2490 C   0  0  0  0  0  0  0  0  0  0  0  0
   -5.7970   -3.4540   14.9730 C   0  0  0  0  0  0  0  0  0  0  0  0
   -6.2600   -3.3020   13.6540 O   0  0  0  0  0  0  0  0  0  0  0  0
   -5.2350   -3.7790   12.8180 C   0  0  0  0  0  0  0  0  0  0  0  0
   -4.0540   -2.8090   12.8410 C   0  0  0  0  0  0  0  0  0  0  0  0
    6.6375   -0.7440   16.9476 H   0  0  0  0  0  0  0  0  0  0  0  0
    2.2008   -1.9394   16.2201 H   0  0  0  0  0  0  0  0  0  0  0  0
    5.0537    2.1672   13.2150 H   0  0  0  0  0  0  0  0  0  0  0  0
    6.8533    1.1565   15.0658 H   0  0  0  0  0  0  0  0  0  0  0  0
    4.4965    2.4530   11.2355 H   0  0  0  0  0  0  0  0  0  0  0  0
    3.6539    3.8880    9.3412 H   0  0  0  0  0  0  0  0  0  0  0  0
    1.2094    5.0002    8.2611 H   0  0  0  0  0  0  0  0  0  0  0  0
   -1.3796    3.3760   11.1782 H   0  0  0  0  0  0  0  0  0  0  0  0
    0.4238    2.0264   12.7382 H   0  0  0  0  0  0  0  0  0  0  0  0
    0.4204   -3.5018   16.2635 H   0  0  0  0  0  0  0  0  0  0  0  0
   -1.9524   -4.0403   15.7370 H   0  0  0  0  0  0  0  0  0  0  0  0
   -2.2561   -0.4114   13.3992 H   0  0  0  0  0  0  0  0  0  0  0  0
    0.1160    0.1244   13.9296 H   0  0  0  0  0  0  0  0  0  0  0  0
   -4.2484   -2.6404   16.2409 H   0  0  0  0  0  0  0  0  0  0  0  0
   -5.0959   -1.4262   15.2229 H   0  0  0  0  0  0  0  0  0  0  0  0
   -5.4084   -4.4741   15.1085 H   0  0  0  0  0  0  0  0  0  0  0  0
   -6.6276   -3.2783   15.6724 H   0  0  0  0  0  0  0  0  0  0  0  0
   -4.9038   -4.7660   13.1732 H   0  0  0  0  0  0  0  0  0  0  0  0
   -5.6154   -3.8635   11.7893 H   0  0  0  0  0  0  0  0  0  0  0  0
   -4.3539   -1.8556   12.3815 H   0  0  0  0  0  0  0  0  0  0  0  0
   -3.2145   -3.2409   12.2764 H   0  0  0  0  0  0  0  0  0  0  0  0
  1  2  1  0
  1 10  2  0
  2  3  2  0
  3  4  1  0
  3  9  1  0
  4  5  1  0
  4  6  2  0
  5 20  1  0
  6  7  1  0
  7  8  2  0
  7 11  1  0
  8  9  1  0
  9 10  1  0
 11 12  2  0
 11 19  1  0
 12 13  1  0
 13 14  2  0
 14 18  1  0
 14 15  1  0
 15 16  2  0
 16 17  1  0
 17 18  1  0
 18 19  2  0
 20 21  2  0
 20 25  1  0
 21 22  1  0
 22 23  2  0
 23 24  1  0
 23 26  1  0
 24 25  2  0
 26 27  1  0
 26 31  1  0
 27 28  1  0
 28 29  1  0
 29 30  1  0
 30 31  1  0
  1 32  1  0
  5 33  1  0
  8 34  1  0
 10 35  1  0
 12 36  1  0
 13 37  1  0
 15 38  1  0
 17 39  1  0
 19 40  1  0
 21 41  1  0
 22 42  1  0
 24 43  1  0
 25 44  1  0
 27 45  1  0
 27 46  1  0
 28 47  1  0
 28 48  1  0
 30 49  1  0
 30 50  1  0
 31 51  1  0
 31 52  1  0
M  END
>  <s_m_entry_id>  (1) 
43

>  <MODEL>  (1) 
1

>  <REMARK>  (1) 
 VINA RESULT:    -9.852      0.000      0.000
 INTER + INTRA:         -11.846
 INTER:                 -11.579
 INTRA:                  -0.266
 UNBOUND:                -0.266
  Name = /scratch/kmzp800/tmp532pkm_6/tmpfi22hg3k.pdb
  3 active torsions:
  status: ('A' for Active; 'I' for Inactive)
    1  A    between atoms: N2_5  and  C4_6
    2  A    between atoms: C7_9  and  N3_10
    3  A    between atoms: C14_19  and  C15_20
                            x       y       z     vdW  Elec       q    Type
                         _______ _______ _______ _____ _____    ______ ____

>  <TORSDO>  (1) 
F 3

>  <grid_id>  (1) 
syk-prepared

>  <grid_path>  (1) 
syk_vina.pdbqt

>  <grid_filename>  (1) 
syk_vina.pdbqt

>  <docking_score>  (1) 
-9.852

>  <compound_name>  (1) 
CHEMBL3265032

>  <index_string>  (1) 
42:0:0

>  <s_m_Source_Path>  (1) 
/projects/mai/users/kmzp800_harry/pmx_colab/docking_jobs/syk/vina_prep/output

>  <s_m_Source_File>  (1) 
ptp1b_docked_conformers.sdf

>  <i_m_Source_File_Index>  (1) 
43

$$$$
