10:0:0
     RDKit          3D

 52 55  0  0  1  0  0  0  0  0999 V2000
    2.0890    6.1808   12.5056 C   0  0  0  0  0  0  0  0  0  0  0  0
    1.2440    5.6249   11.5066 O   0  0  0  0  0  0  0  0  0  0  0  0
    0.5510    4.4710   11.8101 C   0  0  0  0  0  0  0  0  0  0  0  0
    0.5661    3.8729   13.0941 C   0  0  0  0  0  0  0  0  0  0  0  0
   -0.1430    2.6865   13.3334 C   0  0  0  0  0  0  0  0  0  0  0  0
   -0.8798    2.0678   12.3044 C   0  0  0  0  0  0  0  0  0  0  0  0
   -1.5553    0.8605   12.5211 N   0  0  0  0  0  0  0  0  0  0  0  0
   -1.1993   -0.1552   13.4188 C   0  0  0  0  0  0  0  0  0  0  0  0
   -2.1997   -0.8216   13.9260 N   0  0  0  0  0  0  0  0  0  0  0  0
   -1.9410   -1.8222   14.8354 C   0  0  0  0  0  0  0  0  0  0  0  0
   -0.6723   -2.1645   15.2344 C   0  0  0  0  0  0  0  0  0  0  0  0
    0.3647   -1.4908   14.6808 N   0  0  0  0  0  0  0  0  0  0  0  0
    1.7284   -1.5939   14.8782 C   0  0  0  0  0  0  0  0  0  0  0  0
    2.3129   -0.6747   14.0552 C   0  0  0  0  0  0  0  0  0  0  0  0
    1.3506    0.0162   13.3337 N   0  0  0  0  0  0  0  0  0  0  0  0
    0.1663   -0.4593   13.7350 C   0  0  0  0  0  0  0  0  0  0  0  0
   -3.1139   -2.5160   15.3999 C   0  0  0  0  0  0  0  0  0  0  0  0
   -3.0934   -3.9150   15.5696 C   0  0  0  0  0  0  0  0  0  0  0  0
   -4.1786   -4.5910   16.1537 C   0  0  0  0  0  0  0  0  0  0  0  0
   -5.3241   -3.8797   16.5887 C   0  0  0  0  0  0  0  0  0  0  0  0
   -6.4143   -4.4907   17.1775 O   0  0  0  0  0  0  0  0  0  0  0  0
   -6.3948   -5.9033   17.3341 C   0  0  0  0  0  0  0  0  0  0  0  0
   -5.3518   -2.4744   16.4236 C   0  0  0  0  0  0  0  0  0  0  0  0
   -4.2585   -1.8072   15.8282 C   0  0  0  0  0  0  0  0  0  0  0  0
   -6.5290   -1.6761   16.8926 C   0  0  0  0  0  0  0  0  0  0  0  0
   -7.5539   -1.5871   16.2176 O   0  0  0  0  0  0  0  0  0  0  0  0
   -6.3695   -1.0687   18.0691 N   0  0  0  0  0  0  0  0  0  0  0  0
   -0.9364    2.6834   11.0388 C   0  0  0  0  0  0  0  0  0  0  0  0
   -0.2121    3.8751   10.7777 C   0  0  0  0  0  0  0  0  0  0  0  0
   -0.1874    4.4933    9.5419 O   0  0  0  0  0  0  0  0  0  0  0  0
   -0.8576    3.8658    8.4570 C   0  0  0  0  0  0  0  0  0  0  0  0
    2.5225    7.1143   12.1437 H   0  0  0  0  0  0  0  0  0  0  0  0
    1.5352    6.4050   13.4184 H   0  0  0  0  0  0  0  0  0  0  0  0
    2.9102    5.5036   12.7469 H   0  0  0  0  0  0  0  0  0  0  0  0
    1.1250    4.2917   13.9183 H   0  0  0  0  0  0  0  0  0  0  0  0
   -0.1029    2.2537   14.3256 H   0  0  0  0  0  0  0  0  0  0  0  0
   -2.3679    0.6750   11.9519 H   0  0  0  0  0  0  0  0  0  0  0  0
   -0.4431   -2.9306   15.9664 H   0  0  0  0  0  0  0  0  0  0  0  0
    2.1243   -2.3168   15.5784 H   0  0  0  0  0  0  0  0  0  0  0  0
    3.3599   -0.4573   13.9161 H   0  0  0  0  0  0  0  0  0  0  0  0
   -2.2278   -4.4818   15.2614 H   0  0  0  0  0  0  0  0  0  0  0  0
   -4.0994   -5.6606   16.2672 H   0  0  0  0  0  0  0  0  0  0  0  0
   -7.3259   -6.2216   17.8023 H   0  0  0  0  0  0  0  0  0  0  0  0
   -6.3202   -6.4120   16.3717 H   0  0  0  0  0  0  0  0  0  0  0  0
   -5.5753   -6.2248   17.9787 H   0  0  0  0  0  0  0  0  0  0  0  0
   -4.2869   -0.7334   15.7237 H   0  0  0  0  0  0  0  0  0  0  0  0
   -7.1400   -0.5601   18.4753 H   0  0  0  0  0  0  0  0  0  0  0  0
   -5.5024   -1.1952   18.5835 H   0  0  0  0  0  0  0  0  0  0  0  0
   -1.5192    2.2073   10.2693 H   0  0  0  0  0  0  0  0  0  0  0  0
   -0.6668    4.4362    7.5495 H   0  0  0  0  0  0  0  0  0  0  0  0
   -0.4965    2.8513    8.2846 H   0  0  0  0  0  0  0  0  0  0  0  0
   -1.9376    3.8409    8.6103 H   0  0  0  0  0  0  0  0  0  0  0  0
  1  2  1  0
  1 32  1  0
  1 33  1  0
  1 34  1  0
  2  3  1  0
  3  4  2  0
  3 29  1  0
  4  5  1  0
  4 35  1  0
  5  6  2  0
  5 36  1  0
  6  7  1  0
  6 28  1  0
  7  8  1  0
  7 37  1  0
  8  9  2  0
  8 16  1  0
  9 10  1  0
 10 11  2  0
 10 17  1  0
 11 12  1  0
 11 38  1  0
 12 13  1  0
 12 16  1  0
 13 14  2  0
 13 39  1  0
 14 15  1  0
 14 40  1  0
 15 16  2  0
 17 18  2  0
 17 24  1  0
 18 19  1  0
 18 41  1  0
 19 20  2  0
 19 42  1  0
 20 21  1  0
 20 23  1  0
 21 22  1  0
 22 43  1  0
 22 44  1  0
 22 45  1  0
 23 24  2  0
 23 25  1  0
 24 46  1  0
 25 26  2  0
 25 27  1  0
 27 47  1  0
 27 48  1  0
 28 29  2  0
 28 49  1  0
 29 30  1  0
 30 31  1  0
 31 50  1  0
 31 51  1  0
 31 52  1  0
M  END
>  <s_m_entry_id>  (1) 
690

>  <IC50[nM]>  (1) 
37.4

>  <s_m_Source_Path>  (1) 
/projects/mai/users/kmzp800_harry/pmx_colab/docking_jobs/syk

>  <s_m_Source_File>  (1) 
tnks2_lig.sdf

>  <i_m_Source_File_Index>  (1) 
11

>  <s_m_job_name>  (1) 
glide-dock_SP_tnks2_no_const

>  <r_i_docking_score>  (1) 
-6.58904590566601

>  <r_i_glide_gscore>  (1) 
-6.58904590566601

>  <r_i_glide_emodel>  (1) 
-70.1618451058052

>  <index_string>  (1) 
10:0:0

$$$$
