17:0:0
     RDKit          3D

 60 63  0  0  1  0  0  0  0  0999 V2000
   41.3600    9.8510   18.6240 C   0  0  0  0  0  0  0  0  0  0  0  0
   42.2410    8.8150   18.3040 C   0  0  0  0  0  0  0  0  0  0  0  0
   43.2490    9.0170   17.3580 C   0  0  0  0  0  0  0  0  0  0  0  0
   43.3810   10.2590   16.7300 C   0  0  0  0  0  0  0  0  0  0  0  0
   42.5070   11.3090   17.0370 C   0  0  0  0  0  0  0  0  0  0  0  0
   41.5020   11.0940   17.9890 C   0  0  0  0  0  0  0  0  0  0  0  0
   42.6440   12.6460   16.4160 C   0  0  0  0  0  0  0  0  0  0  0  0
   43.6260   13.8700   17.0300 S   0  0  0  0  0  0  0  0  0  0  0  0
   43.2980   15.0210   15.8520 C   0  0  0  0  0  0  0  0  0  0  0  0
   42.4060   14.4510   14.9320 C   0  0  0  0  0  0  0  0  0  0  0  0
   42.0270   13.1370   15.2560 C   0  0  0  0  0  0  0  0  0  0  0  0
   40.7730   12.1720   14.1720 Br  0  0  0  0  0  0  0  0  0  0  0  0
   43.7980   16.4040   15.9090 C   0  0  0  0  0  0  0  0  0  0  0  0
   44.9830   16.6260   16.2690 O   0  0  0  0  0  0  0  0  0  0  0  0
   42.9600   17.4760   15.6310 O   0  0  0  0  0  0  0  0  0  0  0  0
   41.9290   15.0710   13.7700 O   0  0  0  0  0  0  0  0  0  0  0  0
   40.6800   15.7470   13.6940 C   0  0  0  0  0  0  0  0  0  0  0  0
   40.8090   16.9830   12.8730 C   0  0  0  0  0  0  0  0  0  0  0  0
   41.9410   17.3520   12.4660 O   0  0  0  0  0  0  0  0  0  0  0  0
   39.6770   17.7050   12.5230 O   0  0  0  0  0  0  0  0  0  0  0  0
   40.3280    9.6230   19.5950 N   0  0  0  0  0  0  0  0  0  0  0  0
   37.2700    7.2060   17.9310 N   0  0  0  0  0  0  0  0  0  0  0  0
   37.1840    8.6530   17.6520 C   0  0  0  0  0  0  0  0  0  0  0  0
   38.4380    9.4550   18.0260 C   0  0  0  0  0  0  0  0  0  0  0  0
   39.0610    8.9480   19.3290 C   0  0  0  0  0  0  0  0  0  0  0  0
   39.2540    7.4250   19.3530 C   0  0  0  0  0  0  0  0  0  0  0  0
   38.6500    6.7560   18.1230 C   0  0  0  0  0  0  0  0  0  0  0  0
   36.6500    6.3700   16.5440 S   0  0  0  0  0  0  0  0  0  0  0  0
   37.4600    5.1250   16.3120 O   0  0  0  0  0  0  0  0  0  0  0  0
   35.2180    5.9840   16.7880 O   0  0  0  0  0  0  0  0  0  0  0  0
   36.7430    7.4250   15.1050 C   0  0  0  0  0  0  0  0  0  0  0  0
   40.3530    6.7200   12.9030 C   0  0  0  0  0  0  0  0  0  0  0  0
   40.3570    7.6000   13.9900 C   0  0  0  0  0  0  0  0  0  0  0  0
   39.1790    7.8290   14.7080 C   0  0  0  0  0  0  0  0  0  0  0  0
   37.9960    7.1800   14.3390 C   0  0  0  0  0  0  0  0  0  0  0  0
   37.9930    6.2980   13.2530 C   0  0  0  0  0  0  0  0  0  0  0  0
   39.1710    6.0690   12.5350 C   0  0  0  0  0  0  0  0  0  0  0  0
   42.1407    7.8375   18.7983 H   0  0  0  0  0  0  0  0  0  0  0  0
   43.9393    8.1982   17.1071 H   0  0  0  0  0  0  0  0  0  0  0  0
   44.1785   10.4127   15.9881 H   0  0  0  0  0  0  0  0  0  0  0  0
   40.8130   11.9131   18.2428 H   0  0  0  0  0  0  0  0  0  0  0  0
   39.9350   15.0817   13.2332 H   0  0  0  0  0  0  0  0  0  0  0  0
   40.3614   16.0243   14.7097 H   0  0  0  0  0  0  0  0  0  0  0  0
   40.4940    9.9617   20.5535 H   0  0  0  0  0  0  0  0  0  0  0  0
   37.0024    8.7839   16.5750 H   0  0  0  0  0  0  0  0  0  0  0  0
   36.3685    9.0419   18.2794 H   0  0  0  0  0  0  0  0  0  0  0  0
   39.1768    9.3611   17.2165 H   0  0  0  0  0  0  0  0  0  0  0  0
   38.1453   10.5056   18.1696 H   0  0  0  0  0  0  0  0  0  0  0  0
   38.3443    9.1904   20.1275 H   0  0  0  0  0  0  0  0  0  0  0  0
   40.3310    7.2035   19.3856 H   0  0  0  0  0  0  0  0  0  0  0  0
   38.7409    7.0303   20.2424 H   0  0  0  0  0  0  0  0  0  0  0  0
   38.6608    5.6647   18.2604 H   0  0  0  0  0  0  0  0  0  0  0  0
   39.2435    7.0281   17.2377 H   0  0  0  0  0  0  0  0  0  0  0  0
   35.8793    7.2222   14.4548 H   0  0  0  0  0  0  0  0  0  0  0  0
   36.7382    8.4728   15.4399 H   0  0  0  0  0  0  0  0  0  0  0  0
   41.2792    6.5399   12.3376 H   0  0  0  0  0  0  0  0  0  0  0  0
   41.2864    8.1118   14.2801 H   0  0  0  0  0  0  0  0  0  0  0  0
   39.1827    8.5201   15.5638 H   0  0  0  0  0  0  0  0  0  0  0  0
   37.0641    5.7847   12.9639 H   0  0  0  0  0  0  0  0  0  0  0  0
   39.1680    5.3765   11.6803 H   0  0  0  0  0  0  0  0  0  0  0  0
  1 21  1  0
  1  2  2  0
  1  6  1  0
  2  3  1  0
  2 38  1  0
  3  4  2  0
  3 39  1  0
  4  5  1  0
  4 40  1  0
  5  6  2  0
  5  7  1  0
  6 41  1  0
  7  8  1  0
  7 11  2  0
  8  9  1  0
  9 13  1  0
  9 10  2  0
 10 11  1  0
 10 16  1  0
 11 12  1  0
 13 14  1  0
 13 15  2  0
 16 17  1  0
 17 18  1  0
 17 42  1  0
 17 43  1  0
 18 19  2  0
 18 20  1  0
 21 25  1  0
 21 44  1  0
 22 27  1  0
 22 23  1  0
 22 28  1  0
 23 24  1  0
 23 45  1  0
 23 46  1  0
 24 25  1  0
 24 47  1  0
 24 48  1  0
 25 26  1  0
 25 49  1  0
 26 27  1  0
 26 50  1  0
 26 51  1  0
 27 52  1  0
 27 53  1  0
 28 30  2  0
 28 29  2  0
 28 31  1  0
 31 35  1  0
 31 54  1  0
 31 55  1  0
 32 33  2  0
 32 37  1  0
 32 56  1  0
 33 34  1  0
 33 57  1  0
 34 35  2  0
 34 58  1  0
 35 36  1  0
 36 37  2  0
 36 59  1  0
 37 60  1  0
M  CHG  2  14  -1  20  -1
M  END
>  <s_m_entry_id>  (1) 
1363

>  <MODEL>  (1) 
1

>  <REMARK>  (1) 
 VINA RESULT:    -7.160      0.000      0.000
 INTER + INTRA:         -13.299
 INTER:                 -11.346
 INTRA:                  -1.953
 UNBOUND:                -1.953
  Name = /scratch/kmzp800/tmpf21cdblc/tmp2m6g6ql5.pdb
  10 active torsions:
  status: ('A' for Active; 'I' for Inactive)
    1  A    between atoms: C4_4  and  C5_5
    2  A    between atoms: C5_5  and  S1_6
    3  A    between atoms: S1_6  and  N1_9
    4  A    between atoms: C8_12  and  N2_13
    5  A    between atoms: N2_13  and  C9_14
    6  A    between atoms: C13_18  and  C14_19
    7  A    between atoms: C15_21  and  C16_22
    8  A    between atoms: C17_25  and  O5_26
    9  A    between atoms: O5_26  and  C18_27
   10  A    between atoms: C18_27  and  C19_28
                            x       y       z     vdW  Elec       q    Type
                         _______ _______ _______ _____ _____    ______ ____

>  <TORSDO>  (1) 
F 10

>  <grid_id>  (1) 
ptp1b-prepared

>  <grid_path>  (1) 
ptp1b_vina.pdbqt

>  <grid_filename>  (1) 
ptp1b_vina.pdbqt

>  <docking_score>  (1) 
-7.16

>  <compound_name>  (1) 
lig_20667_2qbp

>  <index_string>  (1) 
17:0:0

>  <s_m_Source_Path>  (1) 
/projects/mai/users/kmzp800_harry/pmx_colab/docking_jobs/ptp1b/vina_prep

>  <s_m_Source_File>  (1) 
ptp1b_vina_naive_confs.sdf

>  <i_m_Source_File_Index>  (1) 
18

$$$$
