4:0:0
     RDKit          3D

 47 50  0  0  1  0  0  0  0  0999 V2000
  -14.5020  -14.6200  -27.3840 C   0  0  0  0  0  0  0  0  0  0  0  0
  -15.0090  -15.4670  -26.3810 C   0  0  0  0  0  0  0  0  0  0  0  0
  -14.6310  -13.2370  -27.2400 C   0  0  0  0  0  0  0  0  0  0  0  0
  -15.6910  -14.9180  -25.2870 C   0  0  0  0  0  0  0  0  0  0  0  0
  -14.8200  -16.8600  -26.4720 N   0  0  0  0  0  0  0  0  0  0  0  0
  -15.2840  -12.6950  -26.1370 C   0  0  0  0  0  0  0  0  0  0  0  0
  -15.8310  -13.5310  -25.1580 C   0  0  0  0  0  0  0  0  0  0  0  0
  -16.2780  -15.8650  -24.2600 C   0  0  0  0  0  0  0  0  0  0  0  0
  -15.9170  -17.1600  -24.4930 N   0  0  0  0  0  0  0  0  0  0  0  0
  -17.0230  -15.5520  -23.3320 O   0  0  0  0  0  0  0  0  0  0  0  0
  -15.2260  -17.6900  -25.5670 C   0  0  0  0  0  0  0  0  0  0  0  0
  -15.3850  -11.3520  -26.0320 F   0  0  0  0  0  0  0  0  0  0  0  0
  -13.8130  -15.2200  -28.6240 C   0  0  0  0  0  0  0  0  0  0  0  0
  -15.0130  -19.1580  -25.6780 C   0  0  0  0  0  0  0  0  0  0  0  0
  -14.9820  -19.7580  -26.9460 C   0  0  0  0  0  0  0  0  0  0  0  0
  -14.8080  -21.1310  -27.0850 C   0  0  0  0  0  0  0  0  0  0  0  0
  -14.6500  -21.9440  -25.9590 C   0  0  0  0  0  0  0  0  0  0  0  0
  -14.6640  -21.3510  -24.6930 C   0  0  0  0  0  0  0  0  0  0  0  0
  -14.8490  -19.9760  -24.5500 C   0  0  0  0  0  0  0  0  0  0  0  0
  -14.5750  -23.3170  -26.0780 N   0  0  0  0  0  0  0  0  0  0  0  0
  -15.6230  -23.8200  -27.0770 C   0  0  0  0  0  0  0  0  0  0  0  0
  -15.5870  -25.3460  -27.2090 C   0  0  0  0  0  0  0  0  0  0  0  0
  -14.2470  -25.7130  -27.8490 N   0  0  0  0  0  0  0  0  0  0  0  0
  -13.1150  -25.3660  -26.8790 C   0  0  0  0  0  0  0  0  0  0  0  0
  -13.1760  -23.8660  -26.4440 C   0  0  0  0  0  0  0  0  0  0  0  0
  -14.2120  -27.2160  -28.2240 C   0  0  0  0  0  0  0  0  0  0  0  0
  -14.2119  -12.5688  -28.0067 H   0  0  0  0  0  0  0  0  0  0  0  0
  -16.3651  -13.1035  -24.2966 H   0  0  0  0  0  0  0  0  0  0  0  0
  -16.1981  -17.8363  -23.7687 H   0  0  0  0  0  0  0  0  0  0  0  0
  -13.0193  -15.9112  -28.3040 H   0  0  0  0  0  0  0  0  0  0  0  0
  -14.5536  -15.7660  -29.2268 H   0  0  0  0  0  0  0  0  0  0  0  0
  -13.3740  -14.4114  -29.2268 H   0  0  0  0  0  0  0  0  0  0  0  0
  -15.0971  -19.1330  -27.8439 H   0  0  0  0  0  0  0  0  0  0  0  0
  -14.7946  -21.5805  -28.0889 H   0  0  0  0  0  0  0  0  0  0  0  0
  -14.5274  -21.9766  -23.7986 H   0  0  0  0  0  0  0  0  0  0  0  0
  -14.8665  -19.5294  -23.5449 H   0  0  0  0  0  0  0  0  0  0  0  0
  -16.6216  -23.5147  -26.7313 H   0  0  0  0  0  0  0  0  0  0  0  0
  -15.3986  -23.3833  -28.0614 H   0  0  0  0  0  0  0  0  0  0  0  0
  -15.6708  -25.8123  -26.2162 H   0  0  0  0  0  0  0  0  0  0  0  0
  -16.4251  -25.7046  -27.8246 H   0  0  0  0  0  0  0  0  0  0  0  0
  -13.2021  -26.0015  -25.9854 H   0  0  0  0  0  0  0  0  0  0  0  0
  -12.1563  -25.5395  -27.3897 H   0  0  0  0  0  0  0  0  0  0  0  0
  -12.7843  -23.2597  -27.2741 H   0  0  0  0  0  0  0  0  0  0  0  0
  -12.5843  -23.8037  -25.5188 H   0  0  0  0  0  0  0  0  0  0  0  0
  -14.1979  -27.8226  -27.3065 H   0  0  0  0  0  0  0  0  0  0  0  0
  -15.1045  -27.4671  -28.8159 H   0  0  0  0  0  0  0  0  0  0  0  0
  -13.3087  -27.4253  -28.8159 H   0  0  0  0  0  0  0  0  0  0  0  0
  1  3  2  0
  1  2  1  0
  1 13  1  0
  2  4  2  0
  2  5  1  0
  3  6  1  0
  4  7  1  0
  4  8  1  0
  5 11  2  0
  6 12  1  0
  6  7  2  0
  8 10  2  0
  8  9  1  0
  9 11  1  0
 11 14  1  0
 14 19  1  0
 14 15  2  0
 15 16  1  0
 16 17  2  0
 17 18  1  0
 17 20  1  0
 18 19  2  0
 20 21  1  0
 20 25  1  0
 21 22  1  0
 22 23  1  0
 23 24  1  0
 23 26  1  0
 24 25  1  0
  3 27  1  0
  7 28  1  0
  9 29  1  0
 13 30  1  0
 13 31  1  0
 13 32  1  0
 15 33  1  0
 16 34  1  0
 18 35  1  0
 19 36  1  0
 21 37  1  0
 21 38  1  0
 22 39  1  0
 22 40  1  0
 24 41  1  0
 24 42  1  0
 25 43  1  0
 25 44  1  0
 26 45  1  0
 26 46  1  0
 26 47  1  0
M  END
>  <s_m_entry_id>  (1) 
2332

>  <MODEL>  (1) 
1

>  <REMARK>  (1) 
 VINA RESULT:   -11.183      0.000      0.000
 INTER + INTRA:         -12.905
 INTER:                 -12.490
 INTRA:                  -0.414
 UNBOUND:                -0.414
  Name = 8b
  4 active torsions:
  status: ('A' for Active; 'I' for Inactive)
    1  A    between atoms: C_1  and  C_45
    2  A    between atoms: C_11  and  C_12
    3  A    between atoms: C_15  and  N_19
    4  A    between atoms: N_22  and  C_25
                            x       y       z     vdW  Elec       q    Type
                         _______ _______ _______ _____ _____    ______ ____

>  <TORSDO>  (1) 
F 2

>  <s_m_Source_Path>  (1) 
/projects/mai/users/kmzp800_harry/pmx_colab/docking_jobs/tnks2/vina_prep/output

>  <s_m_Source_File>  (1) 
tnks_naive_vina.sdf

>  <i_m_Source_File_Index>  (1) 
5

>  <index_string>  (1) 
4:0:0

$$$$
