3:0:0
     RDKit          3D

 37 39  0  0  1  0  0  0  0  0999 V2000
  -14.5990  -14.4090  -27.4260 C   0  0  0  0  0  0  0  0  0  0  0  0
  -15.0700  -15.3450  -26.4910 C   0  0  0  0  0  0  0  0  0  0  0  0
  -14.8770  -13.0540  -27.2380 C   0  0  0  0  0  0  0  0  0  0  0  0
  -15.8740  -14.9180  -25.4270 C   0  0  0  0  0  0  0  0  0  0  0  0
  -14.7070  -16.6990  -26.6020 N   0  0  0  0  0  0  0  0  0  0  0  0
  -15.6370  -12.6350  -26.1460 C   0  0  0  0  0  0  0  0  0  0  0  0
  -16.1550  -13.5660  -25.2440 C   0  0  0  0  0  0  0  0  0  0  0  0
  -16.4250  -15.9580  -24.4820 C   0  0  0  0  0  0  0  0  0  0  0  0
  -15.9120  -17.1890  -24.7230 N   0  0  0  0  0  0  0  0  0  0  0  0
  -17.2680  -15.7680  -23.6110 O   0  0  0  0  0  0  0  0  0  0  0  0
  -15.0950  -17.5950  -25.7560 C   0  0  0  0  0  0  0  0  0  0  0  0
  -13.6500  -14.8790  -28.7960 Cl  0  0  0  0  0  0  0  0  0  0  0  0
  -14.7430  -19.0200  -25.8750 C   0  0  0  0  0  0  0  0  0  0  0  0
  -14.1400  -19.6630  -24.7880 C   0  0  0  0  0  0  0  0  0  0  0  0
  -13.8210  -21.0070  -24.8540 C   0  0  0  0  0  0  0  0  0  0  0  0
  -14.0900  -21.7410  -26.0100 C   0  0  0  0  0  0  0  0  0  0  0  0
  -14.6640  -21.1000  -27.1130 C   0  0  0  0  0  0  0  0  0  0  0  0
  -14.9910  -19.7520  -27.0460 C   0  0  0  0  0  0  0  0  0  0  0  0
  -13.8960  -23.2560  -26.0210 C   0  0  0  0  0  0  0  0  0  0  0  0
  -12.9840  -23.7560  -27.1510 C   0  0  0  0  0  0  0  0  0  0  0  0
  -15.2880  -23.8870  -26.0140 C   0  0  0  0  0  0  0  0  0  0  0  0
  -13.2400  -23.7560  -24.8860 O   0  0  0  0  0  0  0  0  0  0  0  0
  -14.4946  -12.3126  -27.9550 H   0  0  0  0  0  0  0  0  0  0  0  0
  -15.8297  -11.5627  -25.9944 H   0  0  0  0  0  0  0  0  0  0  0  0
  -16.7774  -13.2360  -24.3992 H   0  0  0  0  0  0  0  0  0  0  0  0
  -16.1669  -17.9192  -24.0428 H   0  0  0  0  0  0  0  0  0  0  0  0
  -13.9178  -19.0943  -23.8730 H   0  0  0  0  0  0  0  0  0  0  0  0
  -13.3523  -21.5006  -23.9899 H   0  0  0  0  0  0  0  0  0  0  0  0
  -14.8570  -21.6656  -28.0365 H   0  0  0  0  0  0  0  0  0  0  0  0
  -15.4468  -19.2556  -27.9154 H   0  0  0  0  0  0  0  0  0  0  0  0
  -12.0972  -24.2422  -26.7184 H   0  0  0  0  0  0  0  0  0  0  0  0
  -13.5326  -24.4795  -27.7720 H   0  0  0  0  0  0  0  0  0  0  0  0
  -12.6690  -22.9044  -27.7720 H   0  0  0  0  0  0  0  0  0  0  0  0
  -15.6176  -24.0364  -24.9752 H   0  0  0  0  0  0  0  0  0  0  0  0
  -15.9949  -23.2213  -26.5309 H   0  0  0  0  0  0  0  0  0  0  0  0
  -15.2533  -24.8574  -26.5309 H   0  0  0  0  0  0  0  0  0  0  0  0
  -13.6862  -23.4159  -24.0703 H   0  0  0  0  0  0  0  0  0  0  0  0
  1  3  2  0
  1  2  1  0
  1 12  1  0
  2  4  2  0
  2  5  1  0
  3  6  1  0
  4  7  1  0
  4  8  1  0
  5 11  2  0
  6  7  2  0
  8 10  2  0
  8  9  1  0
  9 11  1  0
 11 13  1  0
 13 14  2  0
 13 18  1  0
 14 15  1  0
 15 16  2  0
 16 17  1  0
 16 19  1  0
 17 18  2  0
 19 21  1  0
 19 22  1  0
 19 20  1  0
  3 23  1  0
  6 24  1  0
  7 25  1  0
  9 26  1  0
 14 27  1  0
 15 28  1  0
 17 29  1  0
 18 30  1  0
 20 31  1  0
 20 32  1  0
 20 33  1  0
 21 34  1  0
 21 35  1  0
 21 36  1  0
 22 37  1  0
M  END
>  <s_m_entry_id>  (1) 
2331

>  <MODEL>  (1) 
1

>  <REMARK>  (1) 
 VINA RESULT:   -10.981      0.000      0.000
 INTER + INTRA:         -13.027
 INTER:                 -12.585
 INTRA:                  -0.442
 UNBOUND:                -0.442
  Name = 5g
  5 active torsions:
  status: ('A' for Active; 'I' for Inactive)
    1  A    between atoms: C_11  and  C_12
    2  A    between atoms: C_15  and  C_18
    3  A    between atoms: C_18  and  O_19
    4  A    between atoms: C_18  and  C_20
    5  A    between atoms: C_18  and  C_21
                            x       y       z     vdW  Elec       q    Type
                         _______ _______ _______ _____ _____    ______ ____

>  <TORSDO>  (1) 
F 3

>  <s_m_Source_Path>  (1) 
/projects/mai/users/kmzp800_harry/pmx_colab/docking_jobs/tnks2/vina_prep/output

>  <s_m_Source_File>  (1) 
tnks_naive_vina.sdf

>  <i_m_Source_File_Index>  (1) 
4

>  <index_string>  (1) 
3:0:0

$$$$
