19:0:0
     RDKit          3D

 37 39  0  0  1  0  0  0  0  0999 V2000
  -14.4386  -14.8285  -27.6855 C   0  0  0  0  0  0  0  0  0  0  0  0
  -15.0337  -15.6377  -26.6980 C   0  0  0  0  0  0  0  0  0  0  0  0
  -14.5222  -13.4378  -27.5916 C   0  0  0  0  0  0  0  0  0  0  0  0
  -15.7592  -15.0410  -25.6378 C   0  0  0  0  0  0  0  0  0  0  0  0
  -14.8482  -17.0239  -26.7563 N   0  0  0  0  0  0  0  0  0  0  0  0
  -15.2356  -12.8434  -26.5363 C   0  0  0  0  0  0  0  0  0  0  0  0
  -15.8637  -13.6414  -25.5585 C   0  0  0  0  0  0  0  0  0  0  0  0
  -16.3761  -15.9566  -24.6228 C   0  0  0  0  0  0  0  0  0  0  0  0
  -16.1218  -17.2539  -24.8153 N   0  0  0  0  0  0  0  0  0  0  0  0
  -17.0667  -15.5727  -23.6857 O   0  0  0  0  0  0  0  0  0  0  0  0
  -15.3640  -17.7970  -25.8494 C   0  0  0  0  0  0  0  0  0  0  0  0
  -15.2114  -19.2673  -25.9333 C   0  0  0  0  0  0  0  0  0  0  0  0
  -14.7725  -19.8403  -27.1384 C   0  0  0  0  0  0  0  0  0  0  0  0
  -14.5541  -21.2120  -27.2237 C   0  0  0  0  0  0  0  0  0  0  0  0
  -14.7596  -22.0447  -26.1091 C   0  0  0  0  0  0  0  0  0  0  0  0
  -15.2267  -21.4718  -24.9105 C   0  0  0  0  0  0  0  0  0  0  0  0
  -15.4491  -20.0901  -24.8142 C   0  0  0  0  0  0  0  0  0  0  0  0
  -14.4551  -23.5352  -26.1795 C   0  0  0  0  0  0  0  0  0  0  0  0
  -14.1663  -23.9687  -27.5016 O   0  0  0  0  0  0  0  0  0  0  0  0
  -13.7385  -15.3799  -28.7073 F   0  0  0  0  0  0  0  0  0  0  0  0
  -15.3262  -11.5125  -26.4834 F   0  0  0  0  0  0  0  0  0  0  0  0
  -13.1799  -23.8168  -25.3543 C   0  0  0  0  0  0  0  0  0  0  0  0
  -15.6982  -24.3217  -25.7072 C   0  0  0  0  0  0  0  0  0  0  0  0
  -14.0513  -12.8105  -28.3314 H   0  0  0  0  0  0  0  0  0  0  0  0
  -16.4160  -13.1729  -24.7540 H   0  0  0  0  0  0  0  0  0  0  0  0
  -16.5636  -17.8967  -24.1771 H   0  0  0  0  0  0  0  0  0  0  0  0
  -14.5815  -19.2336  -28.0085 H   0  0  0  0  0  0  0  0  0  0  0  0
  -14.1657  -21.5715  -28.1568 H   0  0  0  0  0  0  0  0  0  0  0  0
  -15.4046  -22.0848  -24.0406 H   0  0  0  0  0  0  0  0  0  0  0  0
  -15.8030  -19.6836  -23.8809 H   0  0  0  0  0  0  0  0  0  0  0  0
  -14.9291  -23.8219  -28.0403 H   0  0  0  0  0  0  0  0  0  0  0  0
  -12.3533  -23.2122  -25.7318 H   0  0  0  0  0  0  0  0  0  0  0  0
  -12.8489  -24.8564  -25.3890 H   0  0  0  0  0  0  0  0  0  0  0  0
  -13.3280  -23.5465  -24.3067 H   0  0  0  0  0  0  0  0  0  0  0  0
  -16.5698  -24.0437  -26.3059 H   0  0  0  0  0  0  0  0  0  0  0  0
  -15.5857  -25.3947  -25.8684 H   0  0  0  0  0  0  0  0  0  0  0  0
  -15.9362  -24.1376  -24.6606 H   0  0  0  0  0  0  0  0  0  0  0  0
  1  2  2  0
  1  3  1  0
  1 20  1  0
  2  4  1  0
  2  5  1  0
  3  6  2  0
  3 24  1  0
  4  7  2  0
  4  8  1  0
  5 11  2  0
  6  7  1  0
  6 21  1  0
  7 25  1  0
  8  9  1  0
  8 10  2  0
  9 11  1  0
  9 26  1  0
 11 12  1  0
 12 13  2  0
 12 17  1  0
 13 14  1  0
 13 27  1  0
 14 15  2  0
 14 28  1  0
 15 16  1  0
 15 18  1  0
 16 17  2  0
 16 29  1  0
 17 30  1  0
 18 19  1  0
 18 22  1  0
 18 23  1  0
 19 31  1  0
 22 32  1  0
 22 33  1  0
 22 34  1  0
 23 35  1  0
 23 36  1  0
 23 37  1  0
M  END
>  <s_m_entry_id>  (1) 
516

>  <Name>  (1) 
5k

>  <IC50[nM]>  (1) 
9.2

>  <s_m_Source_Path>  (1) 
/projects/mai/users/kmzp800_harry/pmx_colab/docking_jobs/tnks2

>  <s_m_Source_File>  (1) 
tnks2_lig.sdf

>  <i_m_Source_File_Index>  (1) 
11

>  <s_m_job_name>  (1) 
glide-dock_SP_tnks_mcs_fallabck

>  <r_i_docking_score>  (1) 
-9.74355614404143

>  <r_i_glide_gscore>  (1) 
-9.74355614404143

>  <r_i_glide_emodel>  (1) 
-33.0313248580684

>  <index_string>  (1) 
19:0:0

$$$$
