7:0:0
     RDKit          3D

 41 43  0  0  1  0  0  0  0  0999 V2000
  -14.4176  -14.7648  -27.6778 C   0  0  0  0  0  0  0  0  0  0  0  0
  -15.0301  -15.5995  -26.7092 C   0  0  0  0  0  0  0  0  0  0  0  0
  -14.5447  -13.3663  -27.5511 C   0  0  0  0  0  0  0  0  0  0  0  0
  -15.7640  -15.0225  -25.6431 C   0  0  0  0  0  0  0  0  0  0  0  0
  -14.8482  -16.9937  -26.7688 N   0  0  0  0  0  0  0  0  0  0  0  0
  -15.2529  -12.8010  -26.4807 C   0  0  0  0  0  0  0  0  0  0  0  0
  -15.8804  -13.6234  -25.5290 C   0  0  0  0  0  0  0  0  0  0  0  0
  -16.3761  -15.9485  -24.6365 C   0  0  0  0  0  0  0  0  0  0  0  0
  -16.1109  -17.2420  -24.8126 N   0  0  0  0  0  0  0  0  0  0  0  0
  -17.0714  -15.5727  -23.7049 O   0  0  0  0  0  0  0  0  0  0  0  0
  -15.3580  -17.7733  -25.8562 C   0  0  0  0  0  0  0  0  0  0  0  0
  -15.1978  -19.2496  -25.9332 C   0  0  0  0  0  0  0  0  0  0  0  0
  -14.7798  -19.8341  -27.1388 C   0  0  0  0  0  0  0  0  0  0  0  0
  -14.5477  -21.2082  -27.2154 C   0  0  0  0  0  0  0  0  0  0  0  0
  -14.7531  -22.0448  -26.1022 C   0  0  0  0  0  0  0  0  0  0  0  0
  -15.2142  -21.4647  -24.9016 C   0  0  0  0  0  0  0  0  0  0  0  0
  -15.4425  -20.0792  -24.8173 C   0  0  0  0  0  0  0  0  0  0  0  0
  -14.4614  -23.5397  -26.1814 C   0  0  0  0  0  0  0  0  0  0  0  0
  -14.1700  -23.9724  -27.5043 O   0  0  0  0  0  0  0  0  0  0  0  0
  -13.1967  -23.8574  -25.3682 C   0  0  0  0  0  0  0  0  0  0  0  0
  -15.6984  -24.3302  -25.7057 C   0  0  0  0  0  0  0  0  0  0  0  0
  -13.6489  -15.3446  -28.6658 O   0  0  0  0  0  0  0  0  0  0  0  0
  -12.9506  -14.5097  -29.5880 C   0  0  0  0  0  0  0  0  0  0  0  0
  -14.0986  -12.6769  -28.2518 H   0  0  0  0  0  0  0  0  0  0  0  0
  -15.3170  -11.7269  -26.4014 H   0  0  0  0  0  0  0  0  0  0  0  0
  -16.4321  -13.1806  -24.7108 H   0  0  0  0  0  0  0  0  0  0  0  0
  -16.5530  -17.8829  -24.1659 H   0  0  0  0  0  0  0  0  0  0  0  0
  -14.5830  -19.2304  -28.0132 H   0  0  0  0  0  0  0  0  0  0  0  0
  -14.1728  -21.5726  -28.1519 H   0  0  0  0  0  0  0  0  0  0  0  0
  -15.3747  -22.0747  -24.0252 H   0  0  0  0  0  0  0  0  0  0  0  0
  -15.7693  -19.6672  -23.8741 H   0  0  0  0  0  0  0  0  0  0  0  0
  -13.9766  -24.8969  -27.4816 H   0  0  0  0  0  0  0  0  0  0  0  0
  -12.3803  -23.2003  -25.6666 H   0  0  0  0  0  0  0  0  0  0  0  0
  -12.8479  -24.8766  -25.5298 H   0  0  0  0  0  0  0  0  0  0  0  0
  -13.3536  -23.7125  -24.2987 H   0  0  0  0  0  0  0  0  0  0  0  0
  -16.5766  -23.9941  -26.2578 H   0  0  0  0  0  0  0  0  0  0  0  0
  -15.6040  -25.3910  -25.9387 H   0  0  0  0  0  0  0  0  0  0  0  0
  -15.8964  -24.2181  -24.6407 H   0  0  0  0  0  0  0  0  0  0  0  0
  -12.1546  -15.0881  -30.0586 H   0  0  0  0  0  0  0  0  0  0  0  0
  -13.6249  -14.1516  -30.3661 H   0  0  0  0  0  0  0  0  0  0  0  0
  -12.4488  -13.6554  -29.1392 H   0  0  0  0  0  0  0  0  0  0  0  0
  1  2  2  0
  1  3  1  0
  1 22  1  0
  2  4  1  0
  2  5  1  0
  3  6  2  0
  3 24  1  0
  4  7  2  0
  4  8  1  0
  5 11  2  0
  6  7  1  0
  6 25  1  0
  7 26  1  0
  8  9  1  0
  8 10  2  0
  9 11  1  0
  9 27  1  0
 11 12  1  0
 12 13  2  0
 12 17  1  0
 13 14  1  0
 13 28  1  0
 14 15  2  0
 14 29  1  0
 15 16  1  0
 15 18  1  0
 16 17  2  0
 16 30  1  0
 17 31  1  0
 18 19  1  0
 18 20  1  0
 18 21  1  0
 19 32  1  0
 20 33  1  0
 20 34  1  0
 20 35  1  0
 21 36  1  0
 21 37  1  0
 21 38  1  0
 22 23  1  0
 23 39  1  0
 23 40  1  0
 23 41  1  0
M  END
>  <s_m_entry_id>  (1) 
504

>  <Name>  (1) 
5h

>  <IC50[nM]>  (1) 
43

>  <s_m_Source_Path>  (1) 
/projects/mai/users/kmzp800_harry/pmx_colab/docking_jobs/tnks2

>  <s_m_Source_File>  (1) 
tnks2_lig.sdf

>  <i_m_Source_File_Index>  (1) 
24

>  <s_m_job_name>  (1) 
glide-dock_SP_tnks_mcs_fallabck

>  <r_i_docking_score>  (1) 
-10.0846963162739

>  <r_i_glide_gscore>  (1) 
-10.0846963162739

>  <r_i_glide_emodel>  (1) 
-41.4793625007258

>  <index_string>  (1) 
7:0:0

$$$$
