17:0:0
     RDKit          3D

 60 63  0  0  1  0  0  0  0  0999 V2000
   39.3566   17.4902   12.4946 O   0  0  0  0  0  0  0  0  0  0  0  0
   40.5589   17.1529   12.5991 C   0  0  0  0  0  0  0  0  0  0  0  0
   41.4573   17.4787   11.7855 O   0  0  0  0  0  0  0  0  0  0  0  0
   40.9239   16.2924   13.8176 C   0  0  0  0  0  0  0  0  0  0  0  0
   42.2045   15.6926   13.6821 O   0  0  0  0  0  0  0  0  0  0  0  0
   42.5400   14.9043   14.7285 C   0  0  0  0  0  0  0  0  0  0  0  0
   42.1496   13.5536   14.8942 C   0  0  0  0  0  0  0  0  0  0  0  0
   40.9839   12.7054   13.6804 Br  0  0  0  0  0  0  0  0  0  0  0  0
   42.5995   12.9254   16.0226 C   0  0  0  0  0  0  0  0  0  0  0  0
   43.5986   14.0073   16.9340 S   0  0  0  0  0  0  0  0  0  0  0  0
   43.3288   15.2921   15.7750 C   0  0  0  0  0  0  0  0  0  0  0  0
   43.9342   16.5789   16.0897 C   0  0  0  0  0  0  0  0  0  0  0  0
   44.5837   16.6863   17.1487 O   0  0  0  0  0  0  0  0  0  0  0  0
   43.7965   17.5335   15.2940 O   0  0  0  0  0  0  0  0  0  0  0  0
   42.3441   11.5794   16.5210 C   0  0  0  0  0  0  0  0  0  0  0  0
   43.3838   10.8030   17.0668 C   0  0  0  0  0  0  0  0  0  0  0  0
   43.1447    9.4869   17.5017 C   0  0  0  0  0  0  0  0  0  0  0  0
   41.8630    8.9240   17.3683 C   0  0  0  0  0  0  0  0  0  0  0  0
   40.8084    9.6752   16.8102 C   0  0  0  0  0  0  0  0  0  0  0  0
   41.0570   11.0139   16.4313 C   0  0  0  0  0  0  0  0  0  0  0  0
   39.5285    9.1503   16.5681 N   0  0  0  0  0  0  0  0  0  0  0  0
   39.3807    7.7259   16.2762 C   0  0  0  0  0  0  0  0  0  0  0  0
   37.8982    7.3118   16.3090 C   0  0  0  0  0  0  0  0  0  0  0  0
   37.7387    5.8129   15.9953 C   0  0  0  0  0  0  0  0  0  0  0  0
   38.3580    5.4870   14.6986 N   0  0  0  0  0  0  0  0  0  0  0  0
   39.7826    5.8681   14.5985 C   0  0  0  0  0  0  0  0  0  0  0  0
   39.9661    7.3652   14.8976 C   0  0  0  0  0  0  0  0  0  0  0  0
   37.3588    5.4974   13.2766 S   0  0  0  0  0  0  0  0  0  0  0  0
   36.3519    6.5603   13.4412 O   0  0  0  0  0  0  0  0  0  0  0  0
   38.2349    5.4881   12.0943 O   0  0  0  0  0  0  0  0  0  0  0  0
   36.5112    3.8614   13.3983 C   0  0  0  0  0  0  0  0  0  0  0  0
   36.9026    2.9673   12.2365 C   0  0  0  0  0  0  0  0  0  0  0  0
   38.1019    2.2243   12.2914 C   0  0  0  0  0  0  0  0  0  0  0  0
   38.4650    1.3826   11.2230 C   0  0  0  0  0  0  0  0  0  0  0  0
   37.6299    1.2797   10.0947 C   0  0  0  0  0  0  0  0  0  0  0  0
   36.4307    2.0147   10.0400 C   0  0  0  0  0  0  0  0  0  0  0  0
   36.0679    2.8621   11.1046 C   0  0  0  0  0  0  0  0  0  0  0  0
   40.8941   16.9174   14.7110 H   0  0  0  0  0  0  0  0  0  0  0  0
   40.1828   15.5014   13.9354 H   0  0  0  0  0  0  0  0  0  0  0  0
   44.3776   11.2155   17.1292 H   0  0  0  0  0  0  0  0  0  0  0  0
   43.9507    8.8995   17.9186 H   0  0  0  0  0  0  0  0  0  0  0  0
   41.7131    7.9080   17.6989 H   0  0  0  0  0  0  0  0  0  0  0  0
   40.2434   11.5975   16.0309 H   0  0  0  0  0  0  0  0  0  0  0  0
   38.9487    9.7479   15.9964 H   0  0  0  0  0  0  0  0  0  0  0  0
   39.8898    7.1433   17.0424 H   0  0  0  0  0  0  0  0  0  0  0  0
   37.4755    7.5248   17.2899 H   0  0  0  0  0  0  0  0  0  0  0  0
   37.3258    7.8974   15.5874 H   0  0  0  0  0  0  0  0  0  0  0  0
   38.2238    5.2193   16.7705 H   0  0  0  0  0  0  0  0  0  0  0  0
   36.6862    5.5263   15.9902 H   0  0  0  0  0  0  0  0  0  0  0  0
   40.3532    5.2829   15.3207 H   0  0  0  0  0  0  0  0  0  0  0  0
   40.1869    5.6098   13.6189 H   0  0  0  0  0  0  0  0  0  0  0  0
   39.4802    7.9583   14.1239 H   0  0  0  0  0  0  0  0  0  0  0  0
   41.0275    7.6100   14.8591 H   0  0  0  0  0  0  0  0  0  0  0  0
   36.7859    3.3909   14.3446 H   0  0  0  0  0  0  0  0  0  0  0  0
   35.4333    4.0308   13.4129 H   0  0  0  0  0  0  0  0  0  0  0  0
   38.7459    2.3025   13.1550 H   0  0  0  0  0  0  0  0  0  0  0  0
   39.3788    0.8070   11.2676 H   0  0  0  0  0  0  0  0  0  0  0  0
   37.9022    0.6252    9.2819 H   0  0  0  0  0  0  0  0  0  0  0  0
   35.7879    1.9147    9.1781 H   0  0  0  0  0  0  0  0  0  0  0  0
   35.1429    3.4196   11.0550 H   0  0  0  0  0  0  0  0  0  0  0  0
  1  2  2  0
  2  3  1  0
  2  4  1  0
  4  5  1  0
  4 38  1  0
  4 39  1  0
  5  6  1  0
  6 11  2  0
  6  7  1  0
  7  8  1  0
  7  9  2  0
  9 10  1  0
  9 15  1  0
 10 11  1  0
 11 12  1  0
 12 13  2  0
 12 14  1  0
 15 20  1  0
 15 16  2  0
 16 17  1  0
 16 40  1  0
 17 18  2  0
 17 41  1  0
 18 19  1  0
 18 42  1  0
 19 20  2  0
 19 21  1  0
 20 43  1  0
 21 22  1  0
 21 44  1  0
 22 27  1  0
 22 23  1  0
 22 45  1  0
 23 24  1  0
 23 46  1  0
 23 47  1  0
 24 25  1  0
 24 48  1  0
 24 49  1  0
 25 26  1  0
 25 28  1  0
 26 27  1  0
 26 50  1  0
 26 51  1  0
 27 52  1  0
 27 53  1  0
 28 29  2  0
 28 30  2  0
 28 31  1  0
 31 32  1  0
 31 54  1  0
 31 55  1  0
 32 37  1  0
 32 33  2  0
 33 34  1  0
 33 56  1  0
 34 35  2  0
 34 57  1  0
 35 36  1  0
 35 58  1  0
 36 37  2  0
 36 59  1  0
 37 60  1  0
M  CHG  2   3  -1  14  -1
M  END
>  <s_m_entry_id>  (1) 
492

>  <i_f3d_flags>  (1) 
0

>  <r_epik_Ionization_Penalty>  (1) 
  0.0004

>  <r_epik_State_Penalty>  (1) 
  0.0002

>  <i_epik_Tot_Q>  (1) 
-2

>  <s_m_job_name>  (1) 
glide-dock_SP_ptp1b_core_cons

>  <r_i_docking_score>  (1) 
-7.60621947464391

>  <r_i_glide_gscore>  (1) 
-7.60641947464391

>  <r_i_glide_emodel>  (1) 
-110.506990474701

>  <index_string>  (1) 
17:0:0

$$$$
