14:0:0
     RDKit          3D

 57 60  0  0  1  0  0  0  0  0999 V2000
   39.1980   17.5242   12.6922 O   0  0  0  0  0  0  0  0  0  0  0  0
   40.3628   17.0672   12.6918 C   0  0  0  0  0  0  0  0  0  0  0  0
   41.2218   17.3120   11.8141 O   0  0  0  0  0  0  0  0  0  0  0  0
   40.7608   16.1493   13.8514 C   0  0  0  0  0  0  0  0  0  0  0  0
   42.1186   15.7287   13.7372 O   0  0  0  0  0  0  0  0  0  0  0  0
   42.5184   14.9223   14.7469 C   0  0  0  0  0  0  0  0  0  0  0  0
   42.1642   13.5596   14.8806 C   0  0  0  0  0  0  0  0  0  0  0  0
   41.1725   12.6874   13.5383 Br  0  0  0  0  0  0  0  0  0  0  0  0
   42.6107   12.9284   16.0076 C   0  0  0  0  0  0  0  0  0  0  0  0
   42.3480   11.5802   16.4772 C   0  0  0  0  0  0  0  0  0  0  0  0
   43.3839   10.7661   16.9770 C   0  0  0  0  0  0  0  0  0  0  0  0
   43.1158    9.4589   17.4128 C   0  0  0  0  0  0  0  0  0  0  0  0
   41.8065    8.9477   17.3380 C   0  0  0  0  0  0  0  0  0  0  0  0
   40.7609    9.7460   16.8320 C   0  0  0  0  0  0  0  0  0  0  0  0
   39.4493    9.2766   16.7082 N   0  0  0  0  0  0  0  0  0  0  0  0
   38.8178    8.5238   17.7815 C   0  0  0  0  0  0  0  0  0  0  0  0
   38.7303    9.3442   19.0816 C   0  0  0  0  0  0  0  0  0  0  0  0
   37.7728   10.5479   18.9477 C   0  0  0  0  0  0  0  0  0  0  0  0
   36.4486   10.1355   18.4381 N   0  0  0  0  0  0  0  0  0  0  0  0
   34.9903   10.4236   19.3624 S   0  0  0  0  0  0  0  0  0  0  0  0
   33.9581    9.4864   18.8940 O   0  0  0  0  0  0  0  0  0  0  0  0
   35.3566   10.4707   20.7878 O   0  0  0  0  0  0  0  0  0  0  0  0
   36.4461    9.2887   17.2251 C   0  0  0  0  0  0  0  0  0  0  0  0
   37.4031    8.0886   17.3633 C   0  0  0  0  0  0  0  0  0  0  0  0
   41.0388   11.0567   16.4220 C   0  0  0  0  0  0  0  0  0  0  0  0
   43.6257   14.0072   16.9154 S   0  0  0  0  0  0  0  0  0  0  0  0
   43.3542   15.3099   15.7678 C   0  0  0  0  0  0  0  0  0  0  0  0
   44.0110   16.5859   16.0476 C   0  0  0  0  0  0  0  0  0  0  0  0
   43.8370   17.5473   15.2618 O   0  0  0  0  0  0  0  0  0  0  0  0
   44.7433   16.6863   17.0542 O   0  0  0  0  0  0  0  0  0  0  0  0
   40.6313   16.6927   14.7875 H   0  0  0  0  0  0  0  0  0  0  0  0
   40.1017   15.2909   13.8783 H   0  0  0  0  0  0  0  0  0  0  0  0
   44.3914   11.1457   17.0204 H   0  0  0  0  0  0  0  0  0  0  0  0
   43.9136    8.8450   17.7940 H   0  0  0  0  0  0  0  0  0  0  0  0
   41.6245    7.9366   17.6623 H   0  0  0  0  0  0  0  0  0  0  0  0
   38.8481    9.7270   16.0358 H   0  0  0  0  0  0  0  0  0  0  0  0
   39.4285    7.6374   17.9510 H   0  0  0  0  0  0  0  0  0  0  0  0
   38.3853    8.7030   19.8919 H   0  0  0  0  0  0  0  0  0  0  0  0
   39.7240    9.6885   19.3800 H   0  0  0  0  0  0  0  0  0  0  0  0
   37.6648   11.0443   19.9111 H   0  0  0  0  0  0  0  0  0  0  0  0
   38.1938   11.2924   18.2727 H   0  0  0  0  0  0  0  0  0  0  0  0
   35.4438    8.9259   17.0279 H   0  0  0  0  0  0  0  0  0  0  0  0
   36.7285    9.8861   16.3608 H   0  0  0  0  0  0  0  0  0  0  0  0
   37.4470    7.5353   16.4204 H   0  0  0  0  0  0  0  0  0  0  0  0
   37.0013    7.3938   18.1027 H   0  0  0  0  0  0  0  0  0  0  0  0
   40.2361   11.6770   16.0571 H   0  0  0  0  0  0  0  0  0  0  0  0
   33.7661   14.6781   18.0949 C   0  0  0  0  0  0  0  0  0  0  0  0
   33.0131   13.5719   17.6569 C   0  0  0  0  0  0  0  0  0  0  0  0
   33.3852   12.2690   18.0408 C   0  0  0  0  0  0  0  0  0  0  0  0
   34.5158   12.0784   18.8599 C   0  0  0  0  0  0  0  0  0  0  0  0
   35.2800   13.1829   19.2903 C   0  0  0  0  0  0  0  0  0  0  0  0
   34.9053   14.4866   18.9041 C   0  0  0  0  0  0  0  0  0  0  0  0
   33.4757   15.6777   17.8028 H   0  0  0  0  0  0  0  0  0  0  0  0
   32.1385   13.7224   17.0364 H   0  0  0  0  0  0  0  0  0  0  0  0
   32.8003   11.4234   17.7132 H   0  0  0  0  0  0  0  0  0  0  0  0
   36.1452   13.0369   19.9205 H   0  0  0  0  0  0  0  0  0  0  0  0
   35.4816   15.3389   19.2385 H   0  0  0  0  0  0  0  0  0  0  0  0
  1  2  2  0
  2  3  1  0
  2  4  1  0
  4  5  1  0
  4 31  1  0
  4 32  1  0
  5  6  1  0
  6  7  1  0
  6 27  2  0
  7  8  1  0
  7  9  2  0
  9 10  1  0
  9 26  1  0
 10 11  2  0
 10 25  1  0
 11 12  1  0
 11 33  1  0
 12 13  2  0
 12 34  1  0
 13 14  1  0
 13 35  1  0
 14 15  1  0
 14 25  2  0
 15 16  1  0
 15 36  1  0
 16 17  1  0
 16 24  1  0
 16 37  1  0
 17 18  1  0
 17 38  1  0
 17 39  1  0
 18 19  1  0
 18 40  1  0
 18 41  1  0
 19 20  1  0
 19 23  1  0
 20 21  2  0
 20 22  2  0
 20 50  1  0
 23 24  1  0
 23 42  1  0
 23 43  1  0
 24 44  1  0
 24 45  1  0
 25 46  1  0
 26 27  1  0
 27 28  1  0
 28 29  2  0
 28 30  1  0
 47 48  2  0
 47 52  1  0
 47 53  1  0
 48 49  1  0
 48 54  1  0
 49 50  2  0
 49 55  1  0
 50 51  1  0
 51 52  2  0
 51 56  1  0
 52 57  1  0
M  CHG  2   3  -1  30  -1
M  END
>  <s_m_entry_id>  (1) 
531

>  <s_m_Source_Path>  (1) 
/projects/mai/users/kmzp800_harry/pmx_colab/docking_jobs/ptp1b/glide-dock_SP_ptp1b_mcs_2

>  <s_m_Source_File>  (1) 
glide-dock_SP_ptp1b_mcs_2_pv.maegz

>  <i_m_Source_File_Index>  (1) 
16

>  <r_i_docking_score>  (1) 
-6.70319586701288

>  <r_i_glide_gscore>  (1) 
-6.70319586701288

>  <r_i_glide_emodel>  (1) 
-89.222037640041

>  <index_string>  (1) 
14:0:0

$$$$
