25:0:0
     RDKit          3D

 50 54  0  0  1  0  0  0  0  0999 V2000
   -3.9504    4.4143    8.6851 C   0  0  0  0  0  0  0  0  0  0  0  0
   -3.3579    4.4634    9.9746 O   0  0  0  0  0  0  0  0  0  0  0  0
   -1.9855    4.3752   10.0672 C   0  0  0  0  0  0  0  0  0  0  0  0
   -1.1447    4.0748    8.9649 C   0  0  0  0  0  0  0  0  0  0  0  0
    0.2511    4.0034    9.1234 C   0  0  0  0  0  0  0  0  0  0  0  0
    0.8245    4.1823   10.3939 C   0  0  0  0  0  0  0  0  0  0  0  0
    2.2124    4.0692   10.5502 N   0  0  0  0  0  0  0  0  0  0  0  0
    2.8719    3.4451   11.6164 C   0  0  0  0  0  0  0  0  0  0  0  0
    2.2807    2.4382   12.1957 N   0  0  0  0  0  0  0  0  0  0  0  0
    2.9053    1.7771   13.2276 C   0  0  0  0  0  0  0  0  0  0  0  0
    4.1410    2.1646   13.6986 C   0  0  0  0  0  0  0  0  0  0  0  0
    4.7499    3.2199   13.0983 N   0  0  0  0  0  0  0  0  0  0  0  0
    5.9615    3.8369   13.3384 C   0  0  0  0  0  0  0  0  0  0  0  0
    6.0956    4.8084   12.3848 C   0  0  0  0  0  0  0  0  0  0  0  0
    4.9701    4.8645   11.5711 N   0  0  0  0  0  0  0  0  0  0  0  0
    4.1581    3.9028   12.0124 C   0  0  0  0  0  0  0  0  0  0  0  0
    2.1599    0.6224   13.7923 C   0  0  0  0  0  0  0  0  0  0  0  0
    2.8287   -0.3962   14.5184 C   0  0  0  0  0  0  0  0  0  0  0  0
    2.1272   -1.4568   15.1214 C   0  0  0  0  0  0  0  0  0  0  0  0
    0.7289   -1.5739   14.9809 C   0  0  0  0  0  0  0  0  0  0  0  0
   -0.3008   -2.4708   15.4096 C   0  0  0  0  0  0  0  0  0  0  0  0
   -1.4759   -2.1093   14.9507 N   0  0  0  0  0  0  0  0  0  0  0  0
   -1.2615   -0.9743   14.2300 N   0  0  0  0  0  0  0  0  0  0  0  0
   -2.3906   -0.3375   13.5858 C   0  0  0  0  0  0  0  0  0  0  0  0
    0.0678   -0.5785   14.2164 C   0  0  0  0  0  0  0  0  0  0  0  0
    0.7556    0.5040   13.6431 C   0  0  0  0  0  0  0  0  0  0  0  0
   -0.0042    4.4934   11.4920 C   0  0  0  0  0  0  0  0  0  0  0  0
   -1.4076    4.6104   11.3370 C   0  0  0  0  0  0  0  0  0  0  0  0
   -2.2577    4.9405   12.3730 O   0  0  0  0  0  0  0  0  0  0  0  0
   -1.6784    5.5169   13.5374 C   0  0  0  0  0  0  0  0  0  0  0  0
   -5.0284    4.5478    8.7757 H   0  0  0  0  0  0  0  0  0  0  0  0
   -3.5716    5.2143    8.0472 H   0  0  0  0  0  0  0  0  0  0  0  0
   -3.7775    3.4516    8.2030 H   0  0  0  0  0  0  0  0  0  0  0  0
   -1.5464    3.8989    7.9813 H   0  0  0  0  0  0  0  0  0  0  0  0
    0.8742    3.7754    8.2716 H   0  0  0  0  0  0  0  0  0  0  0  0
    2.7749    4.7291   10.0337 H   0  0  0  0  0  0  0  0  0  0  0  0
    4.6677    1.6941   14.5224 H   0  0  0  0  0  0  0  0  0  0  0  0
    6.6169    3.4930   14.1252 H   0  0  0  0  0  0  0  0  0  0  0  0
    6.9216    5.4884   12.2180 H   0  0  0  0  0  0  0  0  0  0  0  0
    3.8991   -0.3632   14.6404 H   0  0  0  0  0  0  0  0  0  0  0  0
    2.6644   -2.1945   15.6911 H   0  0  0  0  0  0  0  0  0  0  0  0
   -0.2122   -3.3573   16.0217 H   0  0  0  0  0  0  0  0  0  0  0  0
   -2.2185    0.7349   13.5122 H   0  0  0  0  0  0  0  0  0  0  0  0
   -2.5150   -0.7502   12.5856 H   0  0  0  0  0  0  0  0  0  0  0  0
   -3.2969   -0.5145   14.1656 H   0  0  0  0  0  0  0  0  0  0  0  0
    0.2009    1.2511   13.0926 H   0  0  0  0  0  0  0  0  0  0  0  0
    0.4620    4.6493   12.4527 H   0  0  0  0  0  0  0  0  0  0  0  0
   -2.4701    5.8162   14.2215 H   0  0  0  0  0  0  0  0  0  0  0  0
   -1.0435    4.8060   14.0651 H   0  0  0  0  0  0  0  0  0  0  0  0
   -1.0920    6.4055   13.2998 H   0  0  0  0  0  0  0  0  0  0  0  0
  1  2  1  0
  1 31  1  0
  1 32  1  0
  1 33  1  0
  2  3  1  0
  3  4  2  0
  3 28  1  0
  4  5  1  0
  4 34  1  0
  5  6  2  0
  5 35  1  0
  6  7  1  0
  6 27  1  0
  7  8  1  0
  7 36  1  0
  8  9  2  0
  8 16  1  0
  9 10  1  0
 10 11  2  0
 10 17  1  0
 11 12  1  0
 11 37  1  0
 12 13  1  0
 12 16  1  0
 13 14  2  0
 13 38  1  0
 14 15  1  0
 14 39  1  0
 15 16  2  0
 17 18  2  0
 17 26  1  0
 18 19  1  0
 18 40  1  0
 19 20  2  0
 19 41  1  0
 20 21  1  0
 20 25  1  0
 21 22  2  0
 21 42  1  0
 22 23  1  0
 23 24  1  0
 23 25  1  0
 24 43  1  0
 24 44  1  0
 24 45  1  0
 25 26  2  0
 26 46  1  0
 27 28  2  0
 27 47  1  0
 28 29  1  0
 29 30  1  0
 30 48  1  0
 30 49  1  0
 30 50  1  0
M  END
>  <s_m_entry_id>  (1) 
705

>  <IC50[nM]>  (1) 
12.3

>  <s_m_Source_Path>  (1) 
/projects/mai/users/kmzp800_harry/pmx_colab/docking_jobs/syk

>  <s_m_Source_File>  (1) 
tnks2_lig.sdf

>  <i_m_Source_File_Index>  (1) 
26

>  <s_m_job_name>  (1) 
glide-dock_SP_tnks2_no_const

>  <r_i_docking_score>  (1) 
-6.81514498646229

>  <r_i_glide_gscore>  (1) 
-6.81514498646229

>  <r_i_glide_emodel>  (1) 
-64.2552898269573

>  <index_string>  (1) 
25:0:0

$$$$
