27:0:0
     RDKit          3D

 46 49  0  0  1  0  0  0  0  0999 V2000
   34.8877   35.1386   16.0817 F   0  0  0  0  0  0  0  0  0  0  0  0
   35.9809   35.5504   16.7632 C   0  0  0  0  0  0  0  0  0  0  0  0
   37.2309   35.5549   16.1166 C   0  0  0  0  0  0  0  0  0  0  0  0
   38.3852   35.9523   16.8087 C   0  0  0  0  0  0  0  0  0  0  0  0
   38.2876   36.3218   18.1599 C   0  0  0  0  0  0  0  0  0  0  0  0
   37.0437   36.3396   18.8099 C   0  0  0  0  0  0  0  0  0  0  0  0
   35.8716   35.9486   18.1169 C   0  0  0  0  0  0  0  0  0  0  0  0
   34.6263   35.9029   18.7070 O   0  0  0  0  0  0  0  0  0  0  0  0
   34.4909   36.3240   20.0036 C   0  0  0  0  0  0  0  0  0  0  0  0
   34.4321   37.6401   20.2780 C   0  0  0  0  0  0  0  0  0  0  0  0
   34.4449   35.3150   21.0663 C   0  0  0  0  0  0  0  0  0  0  0  0
   34.5452   34.1122   20.8125 O   0  0  0  0  0  0  0  0  0  0  0  0
   34.3136   35.7846   22.3453 N   0  0  0  0  0  0  0  0  0  0  0  0
   34.2765   34.8394   23.4719 C   0  0  0  0  0  0  0  0  0  0  0  0
   34.2472   37.1819   22.6781 C   0  0  0  0  0  0  0  0  0  0  0  0
   34.3181   38.1238   21.6363 C   0  0  0  0  0  0  0  0  0  0  0  0
   34.1255   37.6210   23.9508 N   0  0  0  0  0  0  0  0  0  0  0  0
   34.0781   38.9362   24.1743 C   0  0  0  0  0  0  0  0  0  0  0  0
   34.1602   39.8948   23.2537 N   0  0  0  0  0  0  0  0  0  0  0  0
   34.2716   39.4896   21.9731 C   0  0  0  0  0  0  0  0  0  0  0  0
   33.9139   39.3702   25.4741 N   0  0  0  0  0  0  0  0  0  0  0  0
   33.5956   38.4864   26.5931 C   0  0  0  0  0  0  0  0  0  0  0  0
   34.8447   37.7931   27.1659 C   0  0  0  0  0  0  0  0  0  0  0  0
   34.4619   36.9261   28.3778 C   0  0  0  0  0  0  0  0  0  0  0  0
   33.8336   37.7369   29.3680 O   0  0  0  0  0  0  0  0  0  0  0  0
   32.6184   38.3330   28.9195 C   0  0  0  0  0  0  0  0  0  0  0  0
   32.8928   39.2560   27.7184 C   0  0  0  0  0  0  0  0  0  0  0  0
   37.3111   35.2399   15.0903 H   0  0  0  0  0  0  0  0  0  0  0  0
   39.3510   35.9493   16.3235 H   0  0  0  0  0  0  0  0  0  0  0  0
   39.1741   36.5786   18.7118 H   0  0  0  0  0  0  0  0  0  0  0  0
   37.0170   36.6310   19.8485 H   0  0  0  0  0  0  0  0  0  0  0  0
   34.4957   38.3800   19.4968 H   0  0  0  0  0  0  0  0  0  0  0  0
   33.3840   35.0125   24.0770 H   0  0  0  0  0  0  0  0  0  0  0  0
   34.2640   33.7848   23.1911 H   0  0  0  0  0  0  0  0  0  0  0  0
   35.1465   34.9927   24.1141 H   0  0  0  0  0  0  0  0  0  0  0  0
   34.3227   40.2612   21.2174 H   0  0  0  0  0  0  0  0  0  0  0  0
   33.8379   40.3747   25.6104 H   0  0  0  0  0  0  0  0  0  0  0  0
   32.9079   37.7171   26.2390 H   0  0  0  0  0  0  0  0  0  0  0  0
   35.3248   37.1695   26.4105 H   0  0  0  0  0  0  0  0  0  0  0  0
   35.5811   38.5388   27.4737 H   0  0  0  0  0  0  0  0  0  0  0  0
   33.7982   36.1120   28.0795 H   0  0  0  0  0  0  0  0  0  0  0  0
   35.3525   36.4666   28.8095 H   0  0  0  0  0  0  0  0  0  0  0  0
   31.8962   37.5567   28.6588 H   0  0  0  0  0  0  0  0  0  0  0  0
   32.1859   38.9062   29.7415 H   0  0  0  0  0  0  0  0  0  0  0  0
   33.5091   40.0958   28.0428 H   0  0  0  0  0  0  0  0  0  0  0  0
   31.9548   39.6803   27.3600 H   0  0  0  0  0  0  0  0  0  0  0  0
  1  2  1  0
  2  7  2  0
  2  3  1  0
  3  4  2  0
  3 28  1  0
  4  5  1  0
  4 29  1  0
  5  6  2  0
  5 30  1  0
  6  7  1  0
  6 31  1  0
  7  8  1  0
  8  9  1  0
  9 10  2  0
  9 11  1  0
 10 16  1  0
 10 32  1  0
 11 12  2  0
 11 13  1  0
 13 14  1  0
 13 15  1  0
 14 33  1  0
 14 34  1  0
 14 35  1  0
 15 16  2  0
 15 17  1  0
 16 20  1  0
 17 18  2  0
 18 19  1  0
 18 21  1  0
 19 20  2  0
 20 36  1  0
 21 22  1  0
 21 37  1  0
 22 27  1  0
 22 23  1  0
 22 38  1  0
 23 24  1  0
 23 39  1  0
 23 40  1  0
 24 25  1  0
 24 41  1  0
 24 42  1  0
 25 26  1  0
 26 27  1  0
 26 43  1  0
 26 44  1  0
 27 45  1  0
 27 46  1  0
M  END
>  <s_m_entry_id>  (1) 
743

>  <i_f3d_flags>  (1) 
0

>  <r_lp_tautomer_probability>  (1) 
1

>  <r_epik_Ionization_Penalty>  (1) 
  0.0000

>  <r_epik_State_Penalty>  (1) 
  0.0000

>  <i_epik_Tot_Q>  (1) 
0

>  <s_m_job_name>  (1) 
glide-dock_SP_p38_all_ligs_no_cons_10_poses

>  <r_i_docking_score>  (1) 
-7.34146649613147

>  <r_i_glide_gscore>  (1) 
-7.34146649613147

>  <r_i_glide_emodel>  (1) 
-55.4219069599875

>  <index_string>  (1) 
27:0:0

$$$$
