13:0:0
     RDKit          3D

 27 29  0  0  1  0  0  0  0  0999 V2000
  -15.2081  -19.2628  -25.9368 C   0  0  0  0  0  0  0  0  0  0  0  0
  -14.7812  -19.8494  -27.1390 C   0  0  0  0  0  0  0  0  0  0  0  0
  -15.4456  -20.0917  -24.8190 C   0  0  0  0  0  0  0  0  0  0  0  0
  -14.5601  -21.2281  -27.2183 C   0  0  0  0  0  0  0  0  0  0  0  0
  -15.2444  -21.4819  -24.9076 C   0  0  0  0  0  0  0  0  0  0  0  0
  -14.8478  -17.0020  -26.7569 N   0  0  0  0  0  0  0  0  0  0  0  0
  -14.7913  -22.0563  -26.1084 C   0  0  0  0  0  0  0  0  0  0  0  0
  -15.0362  -15.6139  -26.6816 C   0  0  0  0  0  0  0  0  0  0  0  0
  -15.7592  -15.0278  -25.6162 C   0  0  0  0  0  0  0  0  0  0  0  0
  -15.2481  -12.8102  -26.4800 C   0  0  0  0  0  0  0  0  0  0  0  0
  -14.5340  -13.3898  -27.5413 C   0  0  0  0  0  0  0  0  0  0  0  0
  -15.8748  -13.6268  -25.5219 C   0  0  0  0  0  0  0  0  0  0  0  0
  -14.4484  -14.7879  -27.6570 C   0  0  0  0  0  0  0  0  0  0  0  0
  -16.3722  -15.9499  -24.6079 C   0  0  0  0  0  0  0  0  0  0  0  0
  -16.1223  -17.2460  -24.8140 N   0  0  0  0  0  0  0  0  0  0  0  0
  -15.3670  -17.7832  -25.8536 C   0  0  0  0  0  0  0  0  0  0  0  0
  -17.0557  -15.5725  -23.6631 O   0  0  0  0  0  0  0  0  0  0  0  0
  -14.5699  -19.2490  -28.0106 H   0  0  0  0  0  0  0  0  0  0  0  0
  -15.7768  -19.6784  -23.8810 H   0  0  0  0  0  0  0  0  0  0  0  0
  -14.1815  -21.5968  -28.1489 H   0  0  0  0  0  0  0  0  0  0  0  0
  -15.4288  -22.1068  -24.0468 H   0  0  0  0  0  0  0  0  0  0  0  0
  -14.0575  -12.7557  -28.2737 H   0  0  0  0  0  0  0  0  0  0  0  0
  -16.4272  -13.1809  -24.7100 H   0  0  0  0  0  0  0  0  0  0  0  0
  -16.5567  -17.8943  -24.1746 H   0  0  0  0  0  0  0  0  0  0  0  0
  -13.8938  -15.2245  -28.4731 H   0  0  0  0  0  0  0  0  0  0  0  0
  -15.3116  -11.7369  -26.4083 H   0  0  0  0  0  0  0  0  0  0  0  0
  -14.6146  -23.1205  -26.1722 H   0  0  0  0  0  0  0  0  0  0  0  0
  1  2  2  0
  1  3  1  0
  1 16  1  0
  2  4  1  0
  2 18  1  0
  3  5  2  0
  3 19  1  0
  4  7  2  0
  4 20  1  0
  5  7  1  0
  5 21  1  0
  6  8  1  0
  6 16  2  0
  7 27  1  0
  8  9  2  0
  8 13  1  0
  9 12  1  0
  9 14  1  0
 10 11  1  0
 10 12  2  0
 10 26  1  0
 11 13  2  0
 11 22  1  0
 12 23  1  0
 13 25  1  0
 14 15  1  0
 14 17  2  0
 15 16  1  0
 15 24  1  0
M  END
>  <s_m_entry_id>  (1) 
510

>  <Name>  (1) 
1a

>  <IC50[nM]>  (1) 
540

>  <s_m_Source_Path>  (1) 
/projects/mai/users/kmzp800_harry/pmx_colab/docking_jobs/tnks2

>  <s_m_Source_File>  (1) 
tnks2_lig.sdf

>  <i_m_Source_File_Index>  (1) 
9

>  <s_m_job_name>  (1) 
glide-dock_SP_tnks_mcs_fallabck

>  <r_i_docking_score>  (1) 
-10.0333172436319

>  <r_i_glide_gscore>  (1) 
-10.0333172436319

>  <r_i_glide_emodel>  (1) 
-56.446942192134

>  <index_string>  (1) 
13:0:0

$$$$
