23:0:0
     RDKit          3D

 39 41  0  0  1  0  0  0  0  0999 V2000
  -14.3680  -14.9610  -27.6520 C   0  0  0  0  0  0  0  0  0  0  0  0
  -14.8920  -15.7330  -26.6200 C   0  0  0  0  0  0  0  0  0  0  0  0
  -14.5530  -13.5840  -27.6230 C   0  0  0  0  0  0  0  0  0  0  0  0
  -15.6410  -15.1560  -25.5890 C   0  0  0  0  0  0  0  0  0  0  0  0
  -14.6380  -17.0960  -26.6380 N   0  0  0  0  0  0  0  0  0  0  0  0
  -15.2830  -13.0080  -26.5840 C   0  0  0  0  0  0  0  0  0  0  0  0
  -15.8460  -13.7810  -25.5670 C   0  0  0  0  0  0  0  0  0  0  0  0
  -16.2100  -16.0720  -24.5240 C   0  0  0  0  0  0  0  0  0  0  0  0
  -15.7650  -17.3500  -24.6650 N   0  0  0  0  0  0  0  0  0  0  0  0
  -17.0090  -15.7560  -23.6430 O   0  0  0  0  0  0  0  0  0  0  0  0
  -15.0400  -17.8890  -25.7070 C   0  0  0  0  0  0  0  0  0  0  0  0
  -15.4520  -11.6870  -26.5840 F   0  0  0  0  0  0  0  0  0  0  0  0
  -14.7710  -19.3290  -25.7730 C   0  0  0  0  0  0  0  0  0  0  0  0
  -15.0290  -19.9830  -26.9810 C   0  0  0  0  0  0  0  0  0  0  0  0
  -14.7420  -21.3180  -27.1300 C   0  0  0  0  0  0  0  0  0  0  0  0
  -14.2010  -22.0470  -26.0690 C   0  0  0  0  0  0  0  0  0  0  0  0
  -13.9730  -21.4090  -24.8450 C   0  0  0  0  0  0  0  0  0  0  0  0
  -14.2570  -20.0560  -24.6930 C   0  0  0  0  0  0  0  0  0  0  0  0
  -13.8140  -23.5190  -26.2620 C   0  0  0  0  0  0  0  0  0  0  0  0
  -13.1600  -24.0180  -24.9730 C   0  0  0  0  0  0  0  0  0  0  0  0
  -12.8160  -23.7060  -27.4090 C   0  0  0  0  0  0  0  0  0  0  0  0
  -15.0200  -24.3740  -26.6510 C   0  0  0  0  0  0  0  0  0  0  0  0
  -13.8159  -15.4332  -28.4780 H   0  0  0  0  0  0  0  0  0  0  0  0
  -14.1258  -12.9519  -28.4154 H   0  0  0  0  0  0  0  0  0  0  0  0
  -16.4381  -13.3131  -24.7667 H   0  0  0  0  0  0  0  0  0  0  0  0
  -15.9989  -17.9958  -23.8974 H   0  0  0  0  0  0  0  0  0  0  0  0
  -15.4663  -19.4230  -27.8208 H   0  0  0  0  0  0  0  0  0  0  0  0
  -14.9395  -21.8158  -28.0908 H   0  0  0  0  0  0  0  0  0  0  0  0
  -13.5667  -21.9809  -23.9977 H   0  0  0  0  0  0  0  0  0  0  0  0
  -14.0784  -19.5593  -23.7279 H   0  0  0  0  0  0  0  0  0  0  0  0
  -13.6982  -23.6074  -24.1060 H   0  0  0  0  0  0  0  0  0  0  0  0
  -13.2005  -25.1168  -24.9429 H   0  0  0  0  0  0  0  0  0  0  0  0
  -12.1109  -23.6888  -24.9429 H   0  0  0  0  0  0  0  0  0  0  0  0
  -11.8139  -23.8938  -26.9961 H   0  0  0  0  0  0  0  0  0  0  0  0
  -13.1242  -24.5620  -28.0273 H   0  0  0  0  0  0  0  0  0  0  0  0
  -12.7933  -22.7965  -28.0273 H   0  0  0  0  0  0  0  0  0  0  0  0
  -15.5246  -24.7317  -25.7414 H   0  0  0  0  0  0  0  0  0  0  0  0
  -15.7211  -23.7701  -27.2458 H   0  0  0  0  0  0  0  0  0  0  0  0
  -14.6822  -25.2355  -27.2458 H   0  0  0  0  0  0  0  0  0  0  0  0
  1  3  2  0
  1  2  1  0
  2  4  2  0
  2  5  1  0
  3  6  1  0
  4  7  1  0
  4  8  1  0
  5 11  2  0
  6  7  2  0
  6 12  1  0
  8 10  2  0
  8  9  1  0
  9 11  1  0
 11 13  1  0
 13 18  1  0
 13 14  2  0
 14 15  1  0
 15 16  2  0
 16 17  1  0
 16 19  1  0
 17 18  2  0
 19 20  1  0
 19 21  1  0
 19 22  1  0
  1 23  1  0
  3 24  1  0
  7 25  1  0
  9 26  1  0
 14 27  1  0
 15 28  1  0
 17 29  1  0
 18 30  1  0
 20 31  1  0
 20 32  1  0
 20 33  1  0
 21 34  1  0
 21 35  1  0
 21 36  1  0
 22 37  1  0
 22 38  1  0
 22 39  1  0
M  END
>  <s_m_entry_id>  (1) 
2351

>  <MODEL>  (1) 
1

>  <REMARK>  (1) 
 VINA RESULT:   -11.709      0.000      0.000
 INTER + INTRA:         -13.579
 INTER:                 -13.078
 INTRA:                  -0.501
 UNBOUND:                -0.501
  Name = 3b
  5 active torsions:
  status: ('A' for Active; 'I' for Inactive)
    1  A    between atoms: C_11  and  C_12
    2  A    between atoms: C_15  and  C_19
    3  A    between atoms: C_19  and  C_20
    4  A    between atoms: C_19  and  C_21
    5  A    between atoms: C_19  and  C_22
                            x       y       z     vdW  Elec       q    Type
                         _______ _______ _______ _____ _____    ______ ____

>  <TORSDO>  (1) 
F 2

>  <s_m_Source_Path>  (1) 
/projects/mai/users/kmzp800_harry/pmx_colab/docking_jobs/tnks2/vina_prep/output

>  <s_m_Source_File>  (1) 
tnks_naive_vina.sdf

>  <i_m_Source_File_Index>  (1) 
24

>  <index_string>  (1) 
23:0:0

$$$$
