9:0:0
     RDKit          3D

 41 43  0  0  1  0  0  0  0  0999 V2000
   39.1960   17.5317   12.6842 O   0  0  0  0  0  0  0  0  0  0  0  0
   40.3624   17.0676   12.6900 C   0  0  0  0  0  0  0  0  0  0  0  0
   41.2287   17.3094   11.8192 O   0  0  0  0  0  0  0  0  0  0  0  0
   40.7482   16.1413   13.8475 C   0  0  0  0  0  0  0  0  0  0  0  0
   42.1058   15.7265   13.7346 O   0  0  0  0  0  0  0  0  0  0  0  0
   42.5197   14.9299   14.7452 C   0  0  0  0  0  0  0  0  0  0  0  0
   42.1710   13.5636   14.8773 C   0  0  0  0  0  0  0  0  0  0  0  0
   41.1739   12.6863   13.5422 Br  0  0  0  0  0  0  0  0  0  0  0  0
   42.6147   12.9387   16.0073 C   0  0  0  0  0  0  0  0  0  0  0  0
   42.3402   11.5919   16.4761 C   0  0  0  0  0  0  0  0  0  0  0  0
   43.3746   10.7581   16.9410 C   0  0  0  0  0  0  0  0  0  0  0  0
   43.0924    9.4487   17.3601 C   0  0  0  0  0  0  0  0  0  0  0  0
   41.7788    8.9550   17.3053 C   0  0  0  0  0  0  0  0  0  0  0  0
   40.7293    9.7809   16.8505 C   0  0  0  0  0  0  0  0  0  0  0  0
   39.4060    9.4073   16.7953 O   0  0  0  0  0  0  0  0  0  0  0  0
   39.0244    8.0647   17.0699 C   0  0  0  0  0  0  0  0  0  0  0  0
   39.2096    7.1395   15.8836 C   0  0  0  0  0  0  0  0  0  0  0  0
   39.2317    5.7434   16.0812 C   0  0  0  0  0  0  0  0  0  0  0  0
   39.3839    4.8753   14.9822 C   0  0  0  0  0  0  0  0  0  0  0  0
   39.5094    5.4002   13.6817 C   0  0  0  0  0  0  0  0  0  0  0  0
   39.4818    6.7933   13.4795 C   0  0  0  0  0  0  0  0  0  0  0  0
   39.3260    7.6609   14.5771 C   0  0  0  0  0  0  0  0  0  0  0  0
   41.0223   11.0937   16.4509 C   0  0  0  0  0  0  0  0  0  0  0  0
   43.6301   14.0193   16.9158 S   0  0  0  0  0  0  0  0  0  0  0  0
   43.3585   15.3184   15.7620 C   0  0  0  0  0  0  0  0  0  0  0  0
   44.0246   16.5935   16.0400 C   0  0  0  0  0  0  0  0  0  0  0  0
   43.8623   17.5528   15.2554 O   0  0  0  0  0  0  0  0  0  0  0  0
   44.7517   16.6791   17.0517 O   0  0  0  0  0  0  0  0  0  0  0  0
   40.6136   16.6795   14.7848 H   0  0  0  0  0  0  0  0  0  0  0  0
   40.0769   15.2864   13.8752 H   0  0  0  0  0  0  0  0  0  0  0  0
   44.3859   11.1250   16.9733 H   0  0  0  0  0  0  0  0  0  0  0  0
   43.8905    8.8206   17.7228 H   0  0  0  0  0  0  0  0  0  0  0  0
   41.6031    7.9442   17.6277 H   0  0  0  0  0  0  0  0  0  0  0  0
   39.5618    7.6747   17.9318 H   0  0  0  0  0  0  0  0  0  0  0  0
   37.9633    8.0594   17.3355 H   0  0  0  0  0  0  0  0  0  0  0  0
   39.1311    5.3336   17.0770 H   0  0  0  0  0  0  0  0  0  0  0  0
   39.4067    3.8070   15.1384 H   0  0  0  0  0  0  0  0  0  0  0  0
   39.6324    4.7344   12.8403 H   0  0  0  0  0  0  0  0  0  0  0  0
   39.5802    7.1983   12.4843 H   0  0  0  0  0  0  0  0  0  0  0  0
   39.2994    8.7291   14.4121 H   0  0  0  0  0  0  0  0  0  0  0  0
   40.2150   11.7276   16.1161 H   0  0  0  0  0  0  0  0  0  0  0  0
  1  2  2  0
  2  3  1  0
  2  4  1  0
  4  5  1  0
  4 29  1  0
  4 30  1  0
  5  6  1  0
  6  7  1  0
  6 25  2  0
  7  8  1  0
  7  9  2  0
  9 10  1  0
  9 24  1  0
 10 11  2  0
 10 23  1  0
 11 12  1  0
 11 31  1  0
 12 13  2  0
 12 32  1  0
 13 14  1  0
 13 33  1  0
 14 15  1  0
 14 23  2  0
 15 16  1  0
 16 17  1  0
 16 34  1  0
 16 35  1  0
 17 18  2  0
 17 22  1  0
 18 19  1  0
 18 36  1  0
 19 20  2  0
 19 37  1  0
 20 21  1  0
 20 38  1  0
 21 22  2  0
 21 39  1  0
 22 40  1  0
 23 41  1  0
 24 25  1  0
 25 26  1  0
 26 27  2  0
 26 28  1  0
M  CHG  2   3  -1  28  -1
M  END
>  <s_m_entry_id>  (1) 
526

>  <s_m_Source_Path>  (1) 
/projects/mai/users/kmzp800_harry/pmx_colab/docking_jobs/ptp1b/glide-dock_SP_ptp1b_mcs_2

>  <s_m_Source_File>  (1) 
glide-dock_SP_ptp1b_mcs_2_pv.maegz

>  <i_m_Source_File_Index>  (1) 
11

>  <r_i_docking_score>  (1) 
-6.73771607282999

>  <r_i_glide_gscore>  (1) 
-6.73771607282999

>  <r_i_glide_emodel>  (1) 
-85.945560602044

>  <index_string>  (1) 
9:0:0

$$$$
