29:0:0
     RDKit          3D

 55 60  0  0  1  0  0  0  0  0999 V2000
    5.7720   -0.5910   16.2880 C   0  0  0  0  0  0  0  0  0  0  0  0
    4.4990   -1.0610   16.2850 N   0  0  0  0  0  0  0  0  0  0  0  0
    3.9080   -0.3650   15.2990 C   0  0  0  0  0  0  0  0  0  0  0  0
    2.5840   -0.4700   14.8810 C   0  0  0  0  0  0  0  0  0  0  0  0
    1.6900   -1.3950   15.5180 N   0  0  0  0  0  0  0  0  0  0  0  0
    2.1780    0.3320   13.8540 N   0  0  0  0  0  0  0  0  0  0  0  0
    3.0250    1.2190   13.2390 C   0  0  0  0  0  0  0  0  0  0  0  0
    4.3590    1.3050   13.6810 C   0  0  0  0  0  0  0  0  0  0  0  0
    4.7340    0.4970   14.7010 N   0  0  0  0  0  0  0  0  0  0  0  0
    5.9260    0.3820   15.3030 C   0  0  0  0  0  0  0  0  0  0  0  0
    2.5330    2.0630   12.1310 C   0  0  0  0  0  0  0  0  0  0  0  0
    3.4330    2.5920   11.1680 C   0  0  0  0  0  0  0  0  0  0  0  0
    2.9730    3.3970   10.1100 C   0  0  0  0  0  0  0  0  0  0  0  0
    1.6080    3.6500   10.0500 C   0  0  0  0  0  0  0  0  0  0  0  0
    0.8550    4.3820    9.1620 C   0  0  0  0  0  0  0  0  0  0  0  0
   -0.4340    4.2920    9.5790 N   0  0  0  0  0  0  0  0  0  0  0  0
   -0.5110    3.5430   10.6750 N   0  0  0  0  0  0  0  0  0  0  0  0
    0.7350    3.1480   10.9660 C   0  0  0  0  0  0  0  0  0  0  0  0
    1.1530    2.3490   12.0260 C   0  0  0  0  0  0  0  0  0  0  0  0
    0.3070   -1.6130   15.2060 C   0  0  0  0  0  0  0  0  0  0  0  0
   -0.4400   -0.7000   14.4500 C   0  0  0  0  0  0  0  0  0  0  0  0
   -1.7860   -0.9480   14.1670 C   0  0  0  0  0  0  0  0  0  0  0  0
   -2.4110   -2.1140   14.6370 C   0  0  0  0  0  0  0  0  0  0  0  0
   -1.6570   -3.0250   15.3960 C   0  0  0  0  0  0  0  0  0  0  0  0
   -0.3120   -2.7760   15.6770 C   0  0  0  0  0  0  0  0  0  0  0  0
   -3.7990   -2.3730   14.3440 N   0  0  0  0  0  0  0  0  0  0  0  0
   -4.8020   -2.3160   15.4120 C   0  0  0  0  0  0  0  0  0  0  0  0
   -5.8100   -3.4620   15.3130 C   0  0  0  0  0  0  0  0  0  0  0  0
   -5.1640   -4.6580   14.9720 O   0  0  0  0  0  0  0  0  0  0  0  0
   -5.3990   -4.8180   13.6000 C   0  0  0  0  0  0  0  0  0  0  0  0
   -4.2670   -4.1980   12.7820 C   0  0  0  0  0  0  0  0  0  0  0  0
   -4.2210   -2.6860   12.9790 C   0  0  0  0  0  0  0  0  0  0  0  0
    6.5668   -0.9291   16.9692 H   0  0  0  0  0  0  0  0  0  0  0  0
    2.0840   -1.9634   16.2813 H   0  0  0  0  0  0  0  0  0  0  0  0
    5.0703    2.0027   13.2150 H   0  0  0  0  0  0  0  0  0  0  0  0
    6.8420    0.9433   15.0667 H   0  0  0  0  0  0  0  0  0  0  0  0
    4.5069    2.3687   11.2508 H   0  0  0  0  0  0  0  0  0  0  0  0
    3.6653    3.8092    9.3611 H   0  0  0  0  0  0  0  0  0  0  0  0
    1.2249    4.9330    8.2848 H   0  0  0  0  0  0  0  0  0  0  0  0
   -1.3661    3.3109   11.2001 H   0  0  0  0  0  0  0  0  0  0  0  0
    0.4333    1.9533   12.7577 H   0  0  0  0  0  0  0  0  0  0  0  0
    0.0363    0.2185   14.0766 H   0  0  0  0  0  0  0  0  0  0  0  0
   -2.3605   -0.2236   13.5710 H   0  0  0  0  0  0  0  0  0  0  0  0
   -2.1310   -3.9434   15.7726 H   0  0  0  0  0  0  0  0  0  0  0  0
    0.2647   -3.4990   16.2726 H   0  0  0  0  0  0  0  0  0  0  0  0
   -4.2900   -2.3763   16.3837 H   0  0  0  0  0  0  0  0  0  0  0  0
   -5.3528   -1.3693   15.3107 H   0  0  0  0  0  0  0  0  0  0  0  0
   -6.3126   -3.5864   16.2835 H   0  0  0  0  0  0  0  0  0  0  0  0
   -6.5460   -3.2209   14.5319 H   0  0  0  0  0  0  0  0  0  0  0  0
   -5.4663   -5.8911   13.3680 H   0  0  0  0  0  0  0  0  0  0  0  0
   -6.3406   -4.3117   13.3412 H   0  0  0  0  0  0  0  0  0  0  0  0
   -3.3093   -4.6329   13.1041 H   0  0  0  0  0  0  0  0  0  0  0  0
   -4.4449   -4.4094   11.7173 H   0  0  0  0  0  0  0  0  0  0  0  0
   -5.2214   -2.2647   12.8012 H   0  0  0  0  0  0  0  0  0  0  0  0
   -3.5019   -2.2507   12.2695 H   0  0  0  0  0  0  0  0  0  0  0  0
  1  2  1  0
  1 10  2  0
  2  3  2  0
  3  4  1  0
  3  9  1  0
  4  5  1  0
  4  6  2  0
  5 20  1  0
  6  7  1  0
  7  8  2  0
  7 11  1  0
  8  9  1  0
  9 10  1  0
 11 12  2  0
 11 19  1  0
 12 13  1  0
 13 14  2  0
 14 18  1  0
 14 15  1  0
 15 16  2  0
 16 17  1  0
 17 18  1  0
 18 19  2  0
 20 25  1  0
 20 21  2  0
 21 22  1  0
 22 23  2  0
 23 24  1  0
 23 26  1  0
 24 25  2  0
 26 27  1  0
 26 32  1  0
 27 28  1  0
 28 29  1  0
 29 30  1  0
 30 31  1  0
 31 32  1  0
  1 33  1  0
  5 34  1  0
  8 35  1  0
 10 36  1  0
 12 37  1  0
 13 38  1  0
 15 39  1  0
 17 40  1  0
 19 41  1  0
 21 42  1  0
 22 43  1  0
 24 44  1  0
 25 45  1  0
 27 46  1  0
 27 47  1  0
 28 48  1  0
 28 49  1  0
 30 50  1  0
 30 51  1  0
 31 52  1  0
 31 53  1  0
 32 54  1  0
 32 55  1  0
M  END
>  <s_m_entry_id>  (1) 
892

>  <MODEL>  (1) 
1

>  <REMARK>  (1) 
 VINA RESULT:    -9.959      0.000      0.000
 INTER + INTRA:         -11.951
 INTER:                 -11.490
 INTRA:                  -0.461
 UNBOUND:                -0.245
  Name = /scratch/kmzp800/tmpugzgopcu/tmpu77skkmr.pdb
  3 active torsions:
  status: ('A' for Active; 'I' for Inactive)
    1  A    between atoms: N2_5  and  C4_6
    2  A    between atoms: C7_9  and  N3_10
    3  A    between atoms: C15_20  and  C16_21
                            x       y       z     vdW  Elec       q    Type
                         _______ _______ _______ _____ _____    ______ ____

>  <TORSDO>  (1) 
F 3

>  <grid_id>  (1) 
syk-prepared

>  <grid_path>  (1) 
syk_vina.pdbqt

>  <grid_filename>  (1) 
syk_vina.pdbqt

>  <docking_score>  (1) 
-9.959

>  <compound_name>  (1) 
CHEMBL3265036

>  <index_string>  (1) 
29:0:0

>  <s_m_Source_Path>  (1) 
/projects/mai/users/kmzp800_harry/pmx_colab/docking_jobs/syk/vina_prep/output

>  <s_m_Source_File>  (1) 
ptp1b_docked_conformers.sdf

>  <i_m_Source_File_Index>  (1) 
716

$$$$
