1:0:0
     RDKit          3D

 37 39  0  0  1  0  0  0  0  0999 V2000
  -14.4468  -14.8613  -27.7036 C   0  0  0  0  0  0  0  0  0  0  0  0
  -15.0397  -15.6375  -26.6965 C   0  0  0  0  0  0  0  0  0  0  0  0
  -14.4493  -13.4650  -27.6118 C   0  0  0  0  0  0  0  0  0  0  0  0
  -15.7305  -15.0247  -25.6293 C   0  0  0  0  0  0  0  0  0  0  0  0
  -14.8483  -17.0235  -26.7541 N   0  0  0  0  0  0  0  0  0  0  0  0
  -15.1088  -12.8521  -26.5424 C   0  0  0  0  0  0  0  0  0  0  0  0
  -15.7804  -13.6140  -25.5583 C   0  0  0  0  0  0  0  0  0  0  0  0
  -16.3473  -15.9410  -24.6086 C   0  0  0  0  0  0  0  0  0  0  0  0
  -16.1389  -17.2422  -24.8139 N   0  0  0  0  0  0  0  0  0  0  0  0
  -16.9803  -15.5713  -23.6390 O   0  0  0  0  0  0  0  0  0  0  0  0
  -15.3770  -17.7880  -25.8412 C   0  0  0  0  0  0  0  0  0  0  0  0
  -15.2108  -19.2645  -25.9256 C   0  0  0  0  0  0  0  0  0  0  0  0
  -15.4429  -20.1064  -24.8204 C   0  0  0  0  0  0  0  0  0  0  0  0
  -15.2104  -21.4944  -24.9228 C   0  0  0  0  0  0  0  0  0  0  0  0
  -14.7380  -22.0528  -26.1303 C   0  0  0  0  0  0  0  0  0  0  0  0
  -14.5414  -21.2102  -27.2329 C   0  0  0  0  0  0  0  0  0  0  0  0
  -14.7778  -19.8375  -27.1322 C   0  0  0  0  0  0  0  0  0  0  0  0
  -14.4149  -23.5441  -26.2340 C   0  0  0  0  0  0  0  0  0  0  0  0
  -14.0698  -23.9727  -27.5349 O   0  0  0  0  0  0  0  0  0  0  0  0
  -15.0975  -11.5122  -26.4919 F   0  0  0  0  0  0  0  0  0  0  0  0
  -16.4412  -12.9854  -24.5612 F   0  0  0  0  0  0  0  0  0  0  0  0
  -15.6556  -24.3672  -25.8879 C   0  0  0  0  0  0  0  0  0  0  0  0
  -13.1865  -23.8589  -25.3759 C   0  0  0  0  0  0  0  0  0  0  0  0
  -13.9201  -15.3370  -28.5152 H   0  0  0  0  0  0  0  0  0  0  0  0
  -13.9563  -12.8598  -28.3620 H   0  0  0  0  0  0  0  0  0  0  0  0
  -16.5958  -17.8787  -24.1699 H   0  0  0  0  0  0  0  0  0  0  0  0
  -15.7685  -19.7013  -23.8717 H   0  0  0  0  0  0  0  0  0  0  0  0
  -15.3601  -22.1178  -24.0554 H   0  0  0  0  0  0  0  0  0  0  0  0
  -14.1660  -21.5728  -28.1742 H   0  0  0  0  0  0  0  0  0  0  0  0
  -14.5936  -19.2236  -28.0015 H   0  0  0  0  0  0  0  0  0  0  0  0
  -13.8742  -24.8972  -27.5005 H   0  0  0  0  0  0  0  0  0  0  0  0
  -16.0042  -24.1645  -24.8727 H   0  0  0  0  0  0  0  0  0  0  0  0
  -15.4844  -25.4394  -25.9393 H   0  0  0  0  0  0  0  0  0  0  0  0
  -16.4834  -24.1377  -26.5659 H   0  0  0  0  0  0  0  0  0  0  0  0
  -13.3988  -23.7272  -24.3116 H   0  0  0  0  0  0  0  0  0  0  0  0
  -12.8435  -24.8840  -25.5247 H   0  0  0  0  0  0  0  0  0  0  0  0
  -12.3534  -23.2039  -25.6279 H   0  0  0  0  0  0  0  0  0  0  0  0
  1  2  2  0
  1  3  1  0
  1 24  1  0
  2  4  1  0
  2  5  1  0
  3  6  2  0
  3 25  1  0
  4  7  2  0
  4  8  1  0
  5 11  2  0
  6  7  1  0
  6 20  1  0
  7 21  1  0
  8  9  1  0
  8 10  2  0
  9 11  1  0
  9 26  1  0
 11 12  1  0
 12 13  2  0
 12 17  1  0
 13 14  1  0
 13 27  1  0
 14 15  2  0
 14 28  1  0
 15 16  1  0
 15 18  1  0
 16 17  2  0
 16 29  1  0
 17 30  1  0
 18 19  1  0
 18 22  1  0
 18 23  1  0
 19 31  1  0
 22 32  1  0
 22 33  1  0
 22 34  1  0
 23 35  1  0
 23 36  1  0
 23 37  1  0
M  END
>  <s_m_entry_id>  (1) 
443

>  <Name>  (1) 
5j

>  <IC50[nM]>  (1) 
7.5

>  <s_m_Source_Path>  (1) 
/projects/mai/users/kmzp800_harry/pmx_colab/docking_jobs/tnks2

>  <s_m_Source_File>  (1) 
tnks2_lig.sdf

>  <i_m_Source_File_Index>  (1) 
2

>  <s_m_job_name>  (1) 
glide-dock_SP_tnks2_core_const

>  <r_i_docking_score>  (1) 
-10.4742799991757

>  <r_i_glide_gscore>  (1) 
-10.4742799991757

>  <r_i_glide_emodel>  (1) 
-54.4190680043814

>  <index_string>  (1) 
1:0:0

$$$$
