4:0:0
     RDKit          3D

 43 45  0  0  1  0  0  0  0  0999 V2000
   42.3120    9.0070   16.9210 C   0  0  0  0  0  0  0  0  0  0  0  0
   42.7350   10.3340   16.8040 C   0  0  0  0  0  0  0  0  0  0  0  0
   42.0140   11.2480   16.0250 C   0  0  0  0  0  0  0  0  0  0  0  0
   40.8500   10.8110   15.3760 C   0  0  0  0  0  0  0  0  0  0  0  0
   40.4170    9.4820   15.4890 C   0  0  0  0  0  0  0  0  0  0  0  0
   41.1560    8.5820   16.2630 C   0  0  0  0  0  0  0  0  0  0  0  0
   42.4270   12.6660   15.9070 C   0  0  0  0  0  0  0  0  0  0  0  0
   43.4050   13.4440   17.0380 S   0  0  0  0  0  0  0  0  0  0  0  0
   43.4400   14.9410   16.2850 C   0  0  0  0  0  0  0  0  0  0  0  0
   42.6870   14.8660   15.1160 C   0  0  0  0  0  0  0  0  0  0  0  0
   42.0980   13.5940   14.9030 C   0  0  0  0  0  0  0  0  0  0  0  0
   40.8260   13.2340   13.5040 Br  0  0  0  0  0  0  0  0  0  0  0  0
   44.1690   16.1150   16.7890 C   0  0  0  0  0  0  0  0  0  0  0  0
   44.9280   16.7620   16.0220 O   0  0  0  0  0  0  0  0  0  0  0  0
   44.0310   16.5200   18.1110 O   0  0  0  0  0  0  0  0  0  0  0  0
   42.5450   15.9810   14.2760 O   0  0  0  0  0  0  0  0  0  0  0  0
   41.5130   16.9500   14.4000 C   0  0  0  0  0  0  0  0  0  0  0  0
   40.9670   17.2930   13.0560 C   0  0  0  0  0  0  0  0  0  0  0  0
   40.3080   18.3510   12.8970 O   0  0  0  0  0  0  0  0  0  0  0  0
   41.2230   16.4660   11.9700 O   0  0  0  0  0  0  0  0  0  0  0  0
   39.2350    9.0270   14.8250 N   0  0  0  0  0  0  0  0  0  0  0  0
   38.9470    7.6220   14.5690 C   0  0  0  0  0  0  0  0  0  0  0  0
   37.4370    7.4090   14.5220 C   0  0  0  0  0  0  0  0  0  0  0  0
   37.1500    5.9850   14.0450 C   0  0  0  0  0  0  0  0  0  0  0  0
   37.6870    5.7920   12.7590 O   0  0  0  0  0  0  0  0  0  0  0  0
   39.0880    5.7820   12.9000 C   0  0  0  0  0  0  0  0  0  0  0  0
   39.5860    7.1840   13.2510 C   0  0  0  0  0  0  0  0  0  0  0  0
   42.8898    8.2974   17.5314 H   0  0  0  0  0  0  0  0  0  0  0  0
   43.6435   10.6640   17.3291 H   0  0  0  0  0  0  0  0  0  0  0  0
   40.2684   11.5209   14.7696 H   0  0  0  0  0  0  0  0  0  0  0  0
   40.8259    7.5366   16.3538 H   0  0  0  0  0  0  0  0  0  0  0  0
   40.7061   16.5436   15.0275 H   0  0  0  0  0  0  0  0  0  0  0  0
   41.9262   17.8583   14.8628 H   0  0  0  0  0  0  0  0  0  0  0  0
   38.5508    9.7300   14.5110 H   0  0  0  0  0  0  0  0  0  0  0  0
   39.3705    7.0126   15.3810 H   0  0  0  0  0  0  0  0  0  0  0  0
   37.0126    7.5541   15.5264 H   0  0  0  0  0  0  0  0  0  0  0  0
   36.9810    8.1320   13.8296 H   0  0  0  0  0  0  0  0  0  0  0  0
   37.6075    5.2678   14.7424 H   0  0  0  0  0  0  0  0  0  0  0  0
   36.0618    5.8279   14.0097 H   0  0  0  0  0  0  0  0  0  0  0  0
   39.3688    5.0838   13.7023 H   0  0  0  0  0  0  0  0  0  0  0  0
   39.5450    5.4624   11.9518 H   0  0  0  0  0  0  0  0  0  0  0  0
   39.3041    7.8864   12.4528 H   0  0  0  0  0  0  0  0  0  0  0  0
   40.6812    7.1753   13.3530 H   0  0  0  0  0  0  0  0  0  0  0  0
  1  2  2  0
  1  6  1  0
  1 28  1  0
  2  3  1  0
  2 29  1  0
  3  4  2  0
  3  7  1  0
  4  5  1  0
  4 30  1  0
  5  6  2  0
  5 21  1  0
  6 31  1  0
  7  8  1  0
  7 11  2  0
  8  9  1  0
  9 13  1  0
  9 10  2  0
 10 11  1  0
 10 16  1  0
 11 12  1  0
 13 15  1  0
 13 14  2  0
 16 17  1  0
 17 18  1  0
 17 32  1  0
 17 33  1  0
 18 19  1  0
 18 20  2  0
 21 22  1  0
 21 34  1  0
 22 23  1  0
 22 27  1  0
 22 35  1  0
 23 24  1  0
 23 36  1  0
 23 37  1  0
 24 25  1  0
 24 38  1  0
 24 39  1  0
 25 26  1  0
 26 27  1  0
 26 40  1  0
 26 41  1  0
 27 42  1  0
 27 43  1  0
M  CHG  2  15  -1  19  -1
M  END
>  <s_m_entry_id>  (1) 
1221

>  <MODEL>  (1) 
1

>  <REMARK>  (1) 
 VINA RESULT:    -7.255      0.000      0.000
 INTER + INTRA:         -10.885
 INTER:                 -10.585
 INTRA:                  -0.300
 UNBOUND:                -0.661
  Name = /scratch/kmzp800/tmpp4wsgnl5/tmpuwadwikj.pdb
  7 active torsions:
  status: ('A' for Active; 'I' for Inactive)
    1  A    between atoms: C3_3  and  C4_4
    2  A    between atoms: C5_6  and  C6_7
    3  A    between atoms: C7_10  and  O3_11
    4  A    between atoms: O3_11  and  C8_12
    5  A    between atoms: C8_12  and  C9_13
    6  A    between atoms: C12_19  and  N1_20
    7  A    between atoms: N1_20  and  C13_21
                            x       y       z     vdW  Elec       q    Type
                         _______ _______ _______ _____ _____    ______ ____

>  <TORSDO>  (1) 
F 7

>  <grid_id>  (1) 
ptp1b-prepared

>  <grid_path>  (1) 
ptp1b_vina.pdbqt

>  <grid_filename>  (1) 
ptp1b_vina.pdbqt

>  <docking_score>  (1) 
-7.255

>  <compound_name>  (1) 
lig_23477

>  <index_string>  (1) 
4:0:0

>  <s_m_Source_Path>  (1) 
/projects/mai/users/kmzp800_harry/pmx_colab/docking_jobs/ptp1b

>  <s_m_Source_File>  (1) 
ptp1b_confs_vina_mcs.sdf

>  <i_m_Source_File_Index>  (1) 
5

$$$$
