6:0:0
     RDKit          3D

 36 38  0  0  1  0  0  0  0  0999 V2000
  -15.0770  -17.8070  -25.7270 C   0  0  0  0  0  0  0  0  0  0  0  0
  -15.7940  -17.3110  -24.6490 N   0  0  0  0  0  0  0  0  0  0  0  0
  -16.1440  -16.0270  -24.3680 C   0  0  0  0  0  0  0  0  0  0  0  0
  -14.7070  -16.9670  -26.6380 N   0  0  0  0  0  0  0  0  0  0  0  0
  -14.9620  -15.5930  -26.5300 C   0  0  0  0  0  0  0  0  0  0  0  0
  -15.6510  -15.0640  -25.4300 C   0  0  0  0  0  0  0  0  0  0  0  0
  -15.8640  -13.6850  -25.3280 C   0  0  0  0  0  0  0  0  0  0  0  0
  -15.3850  -12.8460  -26.3400 C   0  0  0  0  0  0  0  0  0  0  0  0
  -14.7120  -13.3770  -27.4410 C   0  0  0  0  0  0  0  0  0  0  0  0
  -14.5020  -14.7520  -27.5420 C   0  0  0  0  0  0  0  0  0  0  0  0
  -16.8010  -15.7390  -23.3660 O   0  0  0  0  0  0  0  0  0  0  0  0
  -15.5710  -11.5100  -26.2670 F   0  0  0  0  0  0  0  0  0  0  0  0
  -14.7680  -19.2530  -25.8020 C   0  0  0  0  0  0  0  0  0  0  0  0
  -14.1700  -19.9150  -24.7230 N   0  0  0  0  0  0  0  0  0  0  0  0
  -15.0540  -19.9830  -26.9660 C   0  0  0  0  0  0  0  0  0  0  0  0
  -13.8680  -21.2670  -24.8090 C   0  0  0  0  0  0  0  0  0  0  0  0
  -14.7790  -21.3460  -27.0390 C   0  0  0  0  0  0  0  0  0  0  0  0
  -14.1870  -22.0090  -25.9580 C   0  0  0  0  0  0  0  0  0  0  0  0
  -13.8340  -23.5130  -26.0430 C   0  0  0  0  0  0  0  0  0  0  0  0
  -12.8900  -23.7390  -27.2440 C   0  0  0  0  0  0  0  0  0  0  0  0
  -15.1530  -24.2820  -26.1770 C   0  0  0  0  0  0  0  0  0  0  0  0
  -13.2590  -23.9400  -24.7900 O   0  0  0  0  0  0  0  0  0  0  0  0
  -16.1057  -18.0143  -23.9641 H   0  0  0  0  0  0  0  0  0  0  0  0
  -16.4007  -13.2662  -24.4640 H   0  0  0  0  0  0  0  0  0  0  0  0
  -14.3453  -12.7077  -28.2332 H   0  0  0  0  0  0  0  0  0  0  0  0
  -13.9772  -15.1698  -28.4138 H   0  0  0  0  0  0  0  0  0  0  0  0
  -15.5010  -19.4720  -27.8315 H   0  0  0  0  0  0  0  0  0  0  0  0
  -13.3709  -21.7653  -23.9637 H   0  0  0  0  0  0  0  0  0  0  0  0
  -15.0288  -21.9055  -27.9526 H   0  0  0  0  0  0  0  0  0  0  0  0
  -11.8814  -23.9805  -26.8773 H   0  0  0  0  0  0  0  0  0  0  0  0
  -13.2672  -24.5722  -27.8551 H   0  0  0  0  0  0  0  0  0  0  0  0
  -12.8489  -22.8253  -27.8551 H   0  0  0  0  0  0  0  0  0  0  0  0
  -15.5469  -24.5116  -25.1759 H   0  0  0  0  0  0  0  0  0  0  0  0
  -15.8818  -23.6672  -26.7256 H   0  0  0  0  0  0  0  0  0  0  0  0
  -14.9770  -25.2190  -26.7256 H   0  0  0  0  0  0  0  0  0  0  0  0
  -13.7781  -23.5545  -24.0403 H   0  0  0  0  0  0  0  0  0  0  0  0
  1  2  1  0
  1  4  2  0
  1 13  1  0
  2  3  1  0
  3 11  2  0
  3  6  1  0
  4  5  1  0
  5  6  2  0
  5 10  1  0
  6  7  1  0
  7  8  2  0
  8 12  1  0
  8  9  1  0
  9 10  2  0
 13 14  2  0
 13 15  1  0
 14 16  1  0
 15 17  2  0
 16 18  2  0
 17 18  1  0
 18 19  1  0
 19 22  1  0
 19 20  1  0
 19 21  1  0
  2 23  1  0
  7 24  1  0
  9 25  1  0
 10 26  1  0
 15 27  1  0
 16 28  1  0
 17 29  1  0
 20 30  1  0
 20 31  1  0
 20 32  1  0
 21 33  1  0
 21 34  1  0
 21 35  1  0
 22 36  1  0
M  END
>  <s_m_entry_id>  (1) 
2415

>  <MODEL>  (1) 
1

>  <REMARK>  (1) 
 VINA RESULT:   -10.553      0.000      0.000
 INTER + INTRA:         -12.430
 INTER:                 -12.082
 INTRA:                  -0.348
 UNBOUND:                -0.334
  Name = 7
  5 active torsions:
  status: ('A' for Active; 'I' for Inactive)
    1  A    between atoms: C_1  and  C_4
    2  A    between atoms: C_7  and  C_18
    3  A    between atoms: C_18  and  O_19
    4  A    between atoms: C_18  and  C_21
    5  A    between atoms: C_18  and  C_22
                            x       y       z     vdW  Elec       q    Type
                         _______ _______ _______ _____ _____    ______ ____

>  <TORSDO>  (1) 
F 3

>  <s_m_Source_Path>  (1) 
/projects/mai/users/kmzp800_harry/pmx_colab/docking_jobs/tnks2/vina_prep/output_mcs

>  <s_m_Source_File>  (1) 
tnks_mcs_vina__all_poses.sdf

>  <i_m_Source_File_Index>  (1) 
33

>  <index_string>  (1) 
6:0:0

$$$$
