14:0:0
     RDKit          3D

 64 68  0  0  1  0  0  0  0  0999 V2000
    5.8230   -0.6030   16.5440 C   0  0  0  0  0  0  0  0  0  0  0  0
    4.5020   -0.9050   16.4840 N   0  0  0  0  0  0  0  0  0  0  0  0
    4.0720   -0.2250   15.4070 C   0  0  0  0  0  0  0  0  0  0  0  0
    2.7760   -0.1980   14.8990 C   0  0  0  0  0  0  0  0  0  0  0  0
    1.7140   -0.9160   15.5410 N   0  0  0  0  0  0  0  0  0  0  0  0
    2.5470    0.5720   13.7960 N   0  0  0  0  0  0  0  0  0  0  0  0
    3.5390    1.2870   13.1800 C   0  0  0  0  0  0  0  0  0  0  0  0
    4.8440    1.2330   13.7050 C   0  0  0  0  0  0  0  0  0  0  0  0
    5.0440    0.4700   14.8060 N   0  0  0  0  0  0  0  0  0  0  0  0
    6.1690    0.2530   15.5010 C   0  0  0  0  0  0  0  0  0  0  0  0
    0.4150   -1.1530   14.9820 C   0  0  0  0  0  0  0  0  0  0  0  0
   -0.2440   -2.3490   15.2750 C   0  0  0  0  0  0  0  0  0  0  0  0
   -1.5060   -2.6090   14.7360 C   0  0  0  0  0  0  0  0  0  0  0  0
   -2.1220   -1.6790   13.8830 C   0  0  0  0  0  0  0  0  0  0  0  0
   -1.4560   -0.4860   13.5630 C   0  0  0  0  0  0  0  0  0  0  0  0
   -0.1920   -0.2320   14.1180 C   0  0  0  0  0  0  0  0  0  0  0  0
   -3.3880   -1.9200   13.3390 O   0  0  0  0  0  0  0  0  0  0  0  0
   -3.9500   -3.2210   13.2440 C   0  0  0  0  0  0  0  0  0  0  0  0
   -2.0620    0.4260   12.6920 O   0  0  0  0  0  0  0  0  0  0  0  0
   -1.4110    0.9320   11.5350 C   0  0  0  0  0  0  0  0  0  0  0  0
    3.2180    2.1050   11.9920 C   0  0  0  0  0  0  0  0  0  0  0  0
    4.2080    2.4710   11.0670 C   0  0  0  0  0  0  0  0  0  0  0  0
    3.8770    3.2440    9.9500 C   0  0  0  0  0  0  0  0  0  0  0  0
    2.5570    3.6590    9.7500 C   0  0  0  0  0  0  0  0  0  0  0  0
    1.5590    3.3050   10.6670 C   0  0  0  0  0  0  0  0  0  0  0  0
    1.8990    2.5290   11.7810 C   0  0  0  0  0  0  0  0  0  0  0  0
    0.1650    3.7370   10.4730 C   0  0  0  0  0  0  0  0  0  0  0  0
   -0.4200    3.5050    9.3800 O   0  0  0  0  0  0  0  0  0  0  0  0
   -0.5130    4.4300   11.5320 N   0  0  0  0  0  0  0  0  0  0  0  0
   -1.8870    4.8340   11.5630 C   0  0  0  0  0  0  0  0  0  0  0  0
   -2.3040    6.0900   11.1000 C   0  0  0  0  0  0  0  0  0  0  0  0
   -3.6570    6.4420   11.1310 C   0  0  0  0  0  0  0  0  0  0  0  0
   -4.6030    5.5380   11.6270 C   0  0  0  0  0  0  0  0  0  0  0  0
   -4.1930    4.2820   12.0840 C   0  0  0  0  0  0  0  0  0  0  0  0
   -2.8410    3.9330   12.0520 C   0  0  0  0  0  0  0  0  0  0  0  0
   -6.0470    5.9030   11.6410 C   0  0  0  0  0  0  0  0  0  0  0  0
   -6.4220    6.5080   12.9510 C   0  0  0  0  0  0  0  0  0  0  0  0
   -7.6140    6.8490   13.1680 O   0  0  0  0  0  0  0  0  0  0  0  0
   -5.4650    6.6600   13.9450 O   0  0  0  0  0  0  0  0  0  0  0  0
    6.5206   -0.9798   17.3065 H   0  0  0  0  0  0  0  0  0  0  0  0
    1.8995   -1.2927   16.4815 H   0  0  0  0  0  0  0  0  0  0  0  0
    5.6703    1.7896   13.2386 H   0  0  0  0  0  0  0  0  0  0  0  0
    7.1658    0.6677   15.2901 H   0  0  0  0  0  0  0  0  0  0  0  0
    0.2332   -3.0898   15.9334 H   0  0  0  0  0  0  0  0  0  0  0  0
   -2.0213   -3.5493   14.9815 H   0  0  0  0  0  0  0  0  0  0  0  0
    0.3299    0.7042   13.8709 H   0  0  0  0  0  0  0  0  0  0  0  0
   -4.1226   -3.6205   14.2542 H   0  0  0  0  0  0  0  0  0  0  0  0
   -4.9058   -3.1688   12.7021 H   0  0  0  0  0  0  0  0  0  0  0  0
   -3.2568   -3.8812   12.7021 H   0  0  0  0  0  0  0  0  0  0  0  0
   -0.5762    1.5809   11.8383 H   0  0  0  0  0  0  0  0  0  0  0  0
   -1.0252    0.0943   10.9355 H   0  0  0  0  0  0  0  0  0  0  0  0
   -2.1276    1.5126   10.9355 H   0  0  0  0  0  0  0  0  0  0  0  0
    5.2483    2.1485   11.2214 H   0  0  0  0  0  0  0  0  0  0  0  0
    4.6567    3.5262    9.2272 H   0  0  0  0  0  0  0  0  0  0  0  0
    2.3011    4.2659    8.8690 H   0  0  0  0  0  0  0  0  0  0  0  0
    1.1182    2.2473   12.5028 H   0  0  0  0  0  0  0  0  0  0  0  0
    0.0513    4.6625   12.3617 H   0  0  0  0  0  0  0  0  0  0  0  0
   -1.5624    6.8028   10.7100 H   0  0  0  0  0  0  0  0  0  0  0  0
   -3.9775    7.4289   10.7657 H   0  0  0  0  0  0  0  0  0  0  0  0
   -4.9359    3.5680   12.4691 H   0  0  0  0  0  0  0  0  0  0  0  0
   -2.5234    2.9438   12.4133 H   0  0  0  0  0  0  0  0  0  0  0  0
   -6.2445    6.6283   10.8379 H   0  0  0  0  0  0  0  0  0  0  0  0
   -6.6447    4.9926   11.4865 H   0  0  0  0  0  0  0  0  0  0  0  0
   -5.7142    7.0618   14.8148 H   0  0  0  0  0  0  0  0  0  0  0  0
  1  2  1  0
  1 10  2  0
  2  3  2  0
  3  4  1  0
  3  9  1  0
  4  5  1  0
  4  6  2  0
  5 11  1  0
  6  7  1  0
  7  8  2  0
  7 21  1  0
  8  9  1  0
  9 10  1  0
 11 12  2  0
 11 16  1  0
 12 13  1  0
 13 14  2  0
 14 15  1  0
 14 17  1  0
 15 16  2  0
 15 19  1  0
 17 18  1  0
 19 20  1  0
 21 22  2  0
 21 26  1  0
 22 23  1  0
 23 24  2  0
 24 25  1  0
 25 26  2  0
 25 27  1  0
 27 29  1  0
 27 28  2  0
 29 30  1  0
 30 35  1  0
 30 31  2  0
 31 32  1  0
 32 33  2  0
 33 36  1  0
 33 34  1  0
 34 35  2  0
 36 37  1  0
 37 38  2  0
 37 39  1  0
  1 40  1  0
  5 41  1  0
  8 42  1  0
 10 43  1  0
 12 44  1  0
 13 45  1  0
 16 46  1  0
 18 47  1  0
 18 48  1  0
 18 49  1  0
 20 50  1  0
 20 51  1  0
 20 52  1  0
 22 53  1  0
 23 54  1  0
 24 55  1  0
 26 56  1  0
 29 57  1  0
 31 58  1  0
 32 59  1  0
 34 60  1  0
 35 61  1  0
 36 62  1  0
 36 63  1  0
 39 64  1  0
M  END
>  <s_m_entry_id>  (1) 
570

>  <MODEL>  (1) 
1

>  <REMARK>  (1) 
 VINA RESULT:   -10.311      0.000      0.000
 INTER + INTRA:         -15.741
 INTER:                 -14.891
 INTRA:                  -0.850
 UNBOUND:                -0.608
  Name = /scratch/kmzp800/tmphzasx55n/tmp8wp48vvd.pdb
  10 active torsions:
  status: ('A' for Active; 'I' for Inactive)
    1  A    between atoms: N2_5  and  C4_6
    2  A    between atoms: C7_9  and  O1_10
    3  A    between atoms: O1_10  and  C8_11
    4  A    between atoms: C9_12  and  O2_13
    5  A    between atoms: O2_13  and  C10_14
    6  A    between atoms: C12_17  and  C13_18
    7  A    between atoms: C17_22  and  C18_23
    8  A    between atoms: N4_25  and  C19_26
    9  A    between atoms: C22_29  and  C23_30
   10  A    between atoms: C23_30  and  C24_31
                            x       y       z     vdW  Elec       q    Type
                         _______ _______ _______ _____ _____    ______ ____

>  <TORSDO>  (1) 
F 8

>  <grid_id>  (1) 
syk-prepared

>  <grid_path>  (1) 
syk_vina.pdbqt

>  <grid_filename>  (1) 
syk_vina.pdbqt

>  <docking_score>  (1) 
-10.311

>  <compound_name>  (1) 
CHEMBL3264998

>  <index_string>  (1) 
14:0:0

>  <s_m_Source_Path>  (1) 
/projects/mai/users/kmzp800_harry/pmx_colab/docking_jobs/syk/vina_prep/output

>  <s_m_Source_File>  (1) 
ptp1b_docked_conformers.sdf

>  <i_m_Source_File_Index>  (1) 
394

$$$$
