0:0:0
     RDKit          3D

 56 61  0  0  1  0  0  0  0  0999 V2000
   -1.2227   -5.5282   15.4190 C   0  0  0  0  0  0  0  0  0  0  0  0
   -2.1116   -4.4854   15.0401 O   0  0  0  0  0  0  0  0  0  0  0  0
   -1.5857   -3.2263   14.8262 C   0  0  0  0  0  0  0  0  0  0  0  0
   -0.2528   -2.8748   15.1578 C   0  0  0  0  0  0  0  0  0  0  0  0
    0.2583   -1.5915   14.8821 C   0  0  0  0  0  0  0  0  0  0  0  0
    1.5793   -1.3185   15.2663 N   0  0  0  0  0  0  0  0  0  0  0  0
    2.5231   -0.4297   14.7288 C   0  0  0  0  0  0  0  0  0  0  0  0
    2.1981    0.3753   13.7516 N   0  0  0  0  0  0  0  0  0  0  0  0
    3.1306    1.2623   13.2501 C   0  0  0  0  0  0  0  0  0  0  0  0
    4.4354    1.2837   13.6895 C   0  0  0  0  0  0  0  0  0  0  0  0
    4.7646    0.4691   14.7226 N   0  0  0  0  0  0  0  0  0  0  0  0
    5.9071    0.3716   15.4909 C   0  0  0  0  0  0  0  0  0  0  0  0
    5.5922   -0.4925   16.5065 C   0  0  0  0  0  0  0  0  0  0  0  0
    4.3505   -1.0627   16.3281 N   0  0  0  0  0  0  0  0  0  0  0  0
    3.8238   -0.4204   15.2930 C   0  0  0  0  0  0  0  0  0  0  0  0
    2.6519    2.2458   12.2439 C   0  0  0  0  0  0  0  0  0  0  0  0
    3.5342    2.7986   11.2790 C   0  0  0  0  0  0  0  0  0  0  0  0
    3.0913    3.7189   10.3069 C   0  0  0  0  0  0  0  0  0  0  0  0
    1.7442    4.1370   10.2748 C   0  0  0  0  0  0  0  0  0  0  0  0
    0.9292    5.0081    9.4807 C   0  0  0  0  0  0  0  0  0  0  0  0
   -0.3123    5.0302    9.9045 N   0  0  0  0  0  0  0  0  0  0  0  0
   -0.3446    4.1952   10.9740 N   0  0  0  0  0  0  0  0  0  0  0  0
    0.8729    3.6039   11.2597 C   0  0  0  0  0  0  0  0  0  0  0  0
    1.3059    2.6810   12.2285 C   0  0  0  0  0  0  0  0  0  0  0  0
   -0.5857   -0.6359   14.2809 C   0  0  0  0  0  0  0  0  0  0  0  0
   -1.9172   -0.9562   13.9778 C   0  0  0  0  0  0  0  0  0  0  0  0
   -2.4272   -2.2454   14.2482 C   0  0  0  0  0  0  0  0  0  0  0  0
   -3.7725   -2.5480   13.9810 N   0  0  0  0  0  0  0  0  0  0  0  0
   -4.2025   -2.2565   12.6175 C   0  0  0  0  0  0  0  0  0  0  0  0
   -5.6720   -2.6592   12.4155 C   0  0  0  0  0  0  0  0  0  0  0  0
   -6.4721   -1.9960   13.3914 O   0  0  0  0  0  0  0  0  0  0  0  0
   -6.1248   -2.4105   14.7116 C   0  0  0  0  0  0  0  0  0  0  0  0
   -4.6656   -2.0197   15.0066 C   0  0  0  0  0  0  0  0  0  0  0  0
   -1.7757   -6.4646   15.4877 H   0  0  0  0  0  0  0  0  0  0  0  0
   -0.4313   -5.6646   14.6809 H   0  0  0  0  0  0  0  0  0  0  0  0
   -0.7697   -5.3455   16.3928 H   0  0  0  0  0  0  0  0  0  0  0  0
    0.4080   -3.5896   15.6245 H   0  0  0  0  0  0  0  0  0  0  0  0
    1.9798   -1.9580   15.9416 H   0  0  0  0  0  0  0  0  0  0  0  0
    5.1916    1.9822   13.3495 H   0  0  0  0  0  0  0  0  0  0  0  0
    6.7659    0.9933   15.2876 H   0  0  0  0  0  0  0  0  0  0  0  0
    6.1099   -0.7410   17.4081 H   0  0  0  0  0  0  0  0  0  0  0  0
    4.5691    2.4922   11.2552 H   0  0  0  0  0  0  0  0  0  0  0  0
    3.7864    4.1042    9.5761 H   0  0  0  0  0  0  0  0  0  0  0  0
    1.2129    5.6076    8.6281 H   0  0  0  0  0  0  0  0  0  0  0  0
   -1.2045    4.0559   11.4835 H   0  0  0  0  0  0  0  0  0  0  0  0
    0.6042    2.3039   12.9562 H   0  0  0  0  0  0  0  0  0  0  0  0
   -0.2493    0.3694   14.0880 H   0  0  0  0  0  0  0  0  0  0  0  0
   -2.5439   -0.1897   13.5506 H   0  0  0  0  0  0  0  0  0  0  0  0
   -3.5699   -2.7960   11.9129 H   0  0  0  0  0  0  0  0  0  0  0  0
   -4.0909   -1.1963   12.3972 H   0  0  0  0  0  0  0  0  0  0  0  0
   -6.0063   -2.3686   11.4192 H   0  0  0  0  0  0  0  0  0  0  0  0
   -5.7965   -3.7407   12.4909 H   0  0  0  0  0  0  0  0  0  0  0  0
   -6.7933   -1.9291   15.4256 H   0  0  0  0  0  0  0  0  0  0  0  0
   -6.2682   -3.4872   14.8194 H   0  0  0  0  0  0  0  0  0  0  0  0
   -4.5725   -0.9345   15.0546 H   0  0  0  0  0  0  0  0  0  0  0  0
   -4.3705   -2.4066   15.9837 H   0  0  0  0  0  0  0  0  0  0  0  0
  1  2  1  0
  1 34  1  0
  1 35  1  0
  1 36  1  0
  2  3  1  0
  3  4  2  0
  3 27  1  0
  4  5  1  0
  4 37  1  0
  5  6  1  0
  5 25  2  0
  6  7  1  0
  6 38  1  0
  7  8  2  0
  7 15  1  0
  8  9  1  0
  9 10  2  0
  9 16  1  0
 10 11  1  0
 10 39  1  0
 11 12  1  0
 11 15  1  0
 12 13  2  0
 12 40  1  0
 13 14  1  0
 13 41  1  0
 14 15  2  0
 16 17  2  0
 16 24  1  0
 17 18  1  0
 17 42  1  0
 18 19  2  0
 18 43  1  0
 19 20  1  0
 19 23  1  0
 20 21  2  0
 20 44  1  0
 21 22  1  0
 22 23  1  0
 22 45  1  0
 23 24  2  0
 24 46  1  0
 25 26  1  0
 25 47  1  0
 26 27  2  0
 26 48  1  0
 27 28  1  0
 28 29  1  0
 28 33  1  0
 29 30  1  0
 29 49  1  0
 29 50  1  0
 30 31  1  0
 30 51  1  0
 30 52  1  0
 31 32  1  0
 32 33  1  0
 32 53  1  0
 32 54  1  0
 33 55  1  0
 33 56  1  0
M  END
>  <s_m_entry_id>  (1) 
988

>  <IC50[nM]>  (1) 
0.44

>  <s_m_Source_Path>  (1) 
/projects/mai/users/kmzp800_harry/pmx_colab/docking_jobs/syk

>  <s_m_Source_File>  (1) 
tnks2_lig.sdf

>  <i_m_Source_File_Index>  (1) 
1

>  <s_m_job_name>  (1) 
glide-dock_SP_tnks2_core_const

>  <r_i_docking_score>  (1) 
-7.09864130792204

>  <r_i_glide_gscore>  (1) 
-7.09864130792204

>  <r_i_glide_emodel>  (1) 
-43.2647889226501

>  <index_string>  (1) 
0:0:0

$$$$
