15:0:0
     RDKit          3D

 41 43  0  0  1  0  0  0  0  0999 V2000
  -14.5850  -14.5810  -27.4650 C   0  0  0  0  0  0  0  0  0  0  0  0
  -15.0340  -15.4760  -26.4760 C   0  0  0  0  0  0  0  0  0  0  0  0
  -14.8290  -13.2070  -27.2770 C   0  0  0  0  0  0  0  0  0  0  0  0
  -15.7620  -15.0040  -25.3740 C   0  0  0  0  0  0  0  0  0  0  0  0
  -14.7370  -16.8510  -26.5840 N   0  0  0  0  0  0  0  0  0  0  0  0
  -15.5180  -12.7470  -26.1550 C   0  0  0  0  0  0  0  0  0  0  0  0
  -16.0040  -13.6420  -25.2050 C   0  0  0  0  0  0  0  0  0  0  0  0
  -16.2760  -16.0060  -24.3660 C   0  0  0  0  0  0  0  0  0  0  0  0
  -15.7900  -17.2540  -24.5970 N   0  0  0  0  0  0  0  0  0  0  0  0
  -17.0700  -15.7680  -23.4570 O   0  0  0  0  0  0  0  0  0  0  0  0
  -15.0710  -17.7160  -25.6800 C   0  0  0  0  0  0  0  0  0  0  0  0
  -14.7490  -19.1590  -25.7860 C   0  0  0  0  0  0  0  0  0  0  0  0
  -15.0330  -19.8430  -26.9770 C   0  0  0  0  0  0  0  0  0  0  0  0
  -14.7230  -21.1880  -27.1150 C   0  0  0  0  0  0  0  0  0  0  0  0
  -14.1210  -21.8920  -26.0690 C   0  0  0  0  0  0  0  0  0  0  0  0
  -13.8540  -21.2210  -24.8690 C   0  0  0  0  0  0  0  0  0  0  0  0
  -14.1690  -19.8710  -24.7260 C   0  0  0  0  0  0  0  0  0  0  0  0
  -13.6750  -23.3510  -26.2720 C   0  0  0  0  0  0  0  0  0  0  0  0
  -12.7550  -23.5370  -27.4780 C   0  0  0  0  0  0  0  0  0  0  0  0
  -14.9200  -24.2360  -26.3540 C   0  0  0  0  0  0  0  0  0  0  0  0
  -12.8830  -23.8680  -25.2230 O   0  0  0  0  0  0  0  0  0  0  0  0
  -13.8830  -15.0800  -28.5520 O   0  0  0  0  0  0  0  0  0  0  0  0
  -13.4810  -14.1920  -29.5930 C   0  0  0  0  0  0  0  0  0  0  0  0
  -14.4708  -12.4857  -28.0263 H   0  0  0  0  0  0  0  0  0  0  0  0
  -15.6790  -11.6674  -26.0192 H   0  0  0  0  0  0  0  0  0  0  0  0
  -16.5703  -13.2793  -24.3345 H   0  0  0  0  0  0  0  0  0  0  0  0
  -15.9851  -17.9500  -23.8632 H   0  0  0  0  0  0  0  0  0  0  0  0
  -15.5074  -19.3064  -27.8119 H   0  0  0  0  0  0  0  0  0  0  0  0
  -14.9535  -21.7057  -28.0578 H   0  0  0  0  0  0  0  0  0  0  0  0
  -13.3915  -21.7644  -24.0319 H   0  0  0  0  0  0  0  0  0  0  0  0
  -13.9611  -19.3599  -23.7744 H   0  0  0  0  0  0  0  0  0  0  0  0
  -11.7321  -23.7438  -27.1304 H   0  0  0  0  0  0  0  0  0  0  0  0
  -13.1133  -24.3809  -28.0858 H   0  0  0  0  0  0  0  0  0  0  0  0
  -12.7574  -22.6202  -28.0858 H   0  0  0  0  0  0  0  0  0  0  0  0
  -15.2637  -24.4803  -25.3381 H   0  0  0  0  0  0  0  0  0  0  0  0
  -15.7161  -23.7000  -26.8915 H   0  0  0  0  0  0  0  0  0  0  0  0
  -14.6754  -25.1641  -26.8915 H   0  0  0  0  0  0  0  0  0  0  0  0
  -13.2784  -23.6099  -24.3529 H   0  0  0  0  0  0  0  0  0  0  0  0
  -13.0654  -13.2740  -29.1518 H   0  0  0  0  0  0  0  0  0  0  0  0
  -12.7155  -14.6789  -30.2151 H   0  0  0  0  0  0  0  0  0  0  0  0
  -14.3520  -13.9381  -30.2151 H   0  0  0  0  0  0  0  0  0  0  0  0
  1  3  2  0
  1  2  1  0
  1 22  1  0
  2  4  2  0
  2  5  1  0
  3  6  1  0
  4  7  1  0
  4  8  1  0
  5 11  2  0
  6  7  2  0
  8 10  2  0
  8  9  1  0
  9 11  1  0
 11 12  1  0
 12 17  1  0
 12 13  2  0
 13 14  1  0
 14 15  2  0
 15 16  1  0
 15 18  1  0
 16 17  2  0
 18 21  1  0
 18 19  1  0
 18 20  1  0
 22 23  1  0
  3 24  1  0
  6 25  1  0
  7 26  1  0
  9 27  1  0
 13 28  1  0
 14 29  1  0
 16 30  1  0
 17 31  1  0
 19 32  1  0
 19 33  1  0
 19 34  1  0
 20 35  1  0
 20 36  1  0
 20 37  1  0
 21 38  1  0
 23 39  1  0
 23 40  1  0
 23 41  1  0
M  END
>  <s_m_entry_id>  (1) 
2343

>  <MODEL>  (1) 
1

>  <REMARK>  (1) 
 VINA RESULT:   -10.962      0.000      0.000
 INTER + INTRA:         -13.704
 INTER:                 -13.205
 INTRA:                  -0.500
 UNBOUND:                -0.500
  Name = 5h
  7 active torsions:
  status: ('A' for Active; 'I' for Inactive)
    1  A    between atoms: C_1  and  O_22
    2  A    between atoms: C_11  and  C_12
    3  A    between atoms: C_15  and  C_18
    4  A    between atoms: C_18  and  O_19
    5  A    between atoms: C_18  and  C_20
    6  A    between atoms: C_18  and  C_21
    7  A    between atoms: O_22  and  C_23
                            x       y       z     vdW  Elec       q    Type
                         _______ _______ _______ _____ _____    ______ ____

>  <TORSDO>  (1) 
F 4

>  <s_m_Source_Path>  (1) 
/projects/mai/users/kmzp800_harry/pmx_colab/docking_jobs/tnks2/vina_prep/output

>  <s_m_Source_File>  (1) 
tnks_naive_vina.sdf

>  <i_m_Source_File_Index>  (1) 
16

>  <index_string>  (1) 
15:0:0

$$$$
