19:0:0
     RDKit          3D

 60 63  0  0  1  0  0  0  0  0999 V2000
   41.3756   17.4862   11.6212 O   0  0  0  0  0  0  0  0  0  0  0  0
   40.4962   17.3590   12.5076 C   0  0  0  0  0  0  0  0  0  0  0  0
   39.3634   17.8872   12.4941 O   0  0  0  0  0  0  0  0  0  0  0  0
   40.8057   16.4810   13.7054 C   0  0  0  0  0  0  0  0  0  0  0  0
   41.9022   15.6411   13.4032 O   0  0  0  0  0  0  0  0  0  0  0  0
   42.2578   14.8481   14.4249 C   0  0  0  0  0  0  0  0  0  0  0  0
   41.7960   13.5083   14.5556 C   0  0  0  0  0  0  0  0  0  0  0  0
   42.3170   12.8519   15.6393 C   0  0  0  0  0  0  0  0  0  0  0  0
   43.3841   13.9102   16.5423 S   0  0  0  0  0  0  0  0  0  0  0  0
   43.1078   15.2380   15.4318 C   0  0  0  0  0  0  0  0  0  0  0  0
   43.7828   16.5378   15.6938 C   0  0  0  0  0  0  0  0  0  0  0  0
   44.5248   16.6856   16.6896 O   0  0  0  0  0  0  0  0  0  0  0  0
   43.6267   17.4862   14.8927 O   0  0  0  0  0  0  0  0  0  0  0  0
   42.0788   11.4631   16.0431 C   0  0  0  0  0  0  0  0  0  0  0  0
   42.9270   10.7853   16.9491 C   0  0  0  0  0  0  0  0  0  0  0  0
   42.6852    9.4387   17.2887 C   0  0  0  0  0  0  0  0  0  0  0  0
   41.6035    8.7450   16.7129 C   0  0  0  0  0  0  0  0  0  0  0  0
   40.7548    9.3983   15.7954 C   0  0  0  0  0  0  0  0  0  0  0  0
   40.9892   10.7525   15.4871 C   0  0  0  0  0  0  0  0  0  0  0  0
   39.6816    8.7483   15.1703 N   0  0  0  0  0  0  0  0  0  0  0  0
   39.8646    7.3751   14.7080 C   0  0  0  0  0  0  0  0  0  0  0  0
   39.0814    6.3817   15.5816 C   0  0  0  0  0  0  0  0  0  0  0  0
   39.1706    4.9391   15.0429 C   0  0  0  0  0  0  0  0  0  0  0  0
   38.8135    4.8625   13.6115 N   0  0  0  0  0  0  0  0  0  0  0  0
   39.5385    5.8049   12.7426 C   0  0  0  0  0  0  0  0  0  0  0  0
   39.4007    7.2443   13.2502 C   0  0  0  0  0  0  0  0  0  0  0  0
   37.2897    4.1873   13.1164 S   0  0  0  0  0  0  0  0  0  0  0  0
   37.2889    4.1273   11.6462 O   0  0  0  0  0  0  0  0  0  0  0  0
   37.0827    2.9629   13.9039 O   0  0  0  0  0  0  0  0  0  0  0  0
   36.0448    5.4567   13.6242 C   0  0  0  0  0  0  0  0  0  0  0  0
   35.0697    4.8894   14.6425 C   0  0  0  0  0  0  0  0  0  0  0  0
   35.2237    5.1793   16.0145 C   0  0  0  0  0  0  0  0  0  0  0  0
   34.3203    4.6520   16.9573 C   0  0  0  0  0  0  0  0  0  0  0  0
   33.2603    3.8280   16.5343 C   0  0  0  0  0  0  0  0  0  0  0  0
   33.1068    3.5287   15.1674 C   0  0  0  0  0  0  0  0  0  0  0  0
   34.0071    4.0601   14.2229 C   0  0  0  0  0  0  0  0  0  0  0  0
   41.0138   17.1194   14.5659 H   0  0  0  0  0  0  0  0  0  0  0  0
   39.9242   15.8863   13.9468 H   0  0  0  0  0  0  0  0  0  0  0  0
   41.1214   13.0794   13.8303 H   0  0  0  0  0  0  0  0  0  0  0  0
   43.7758   11.2879   17.3892 H   0  0  0  0  0  0  0  0  0  0  0  0
   43.3354    8.9342   17.9879 H   0  0  0  0  0  0  0  0  0  0  0  0
   41.4231    7.7154   16.9826 H   0  0  0  0  0  0  0  0  0  0  0  0
   40.3223   11.2449   14.7955 H   0  0  0  0  0  0  0  0  0  0  0  0
   39.1281    9.3318   14.5554 H   0  0  0  0  0  0  0  0  0  0  0  0
   40.9229    7.1109   14.7412 H   0  0  0  0  0  0  0  0  0  0  0  0
   39.4600    6.4054   16.6036 H   0  0  0  0  0  0  0  0  0  0  0  0
   38.0407    6.6916   15.6453 H   0  0  0  0  0  0  0  0  0  0  0  0
   40.1884    4.5675   15.1638 H   0  0  0  0  0  0  0  0  0  0  0  0
   38.5300    4.2759   15.6244 H   0  0  0  0  0  0  0  0  0  0  0  0
   40.5915    5.5202   12.7324 H   0  0  0  0  0  0  0  0  0  0  0  0
   39.1908    5.7289   11.7129 H   0  0  0  0  0  0  0  0  0  0  0  0
   38.3690    7.5797   13.1437 H   0  0  0  0  0  0  0  0  0  0  0  0
   40.0045    7.8861   12.6141 H   0  0  0  0  0  0  0  0  0  0  0  0
   36.5579    6.3322   14.0129 H   0  0  0  0  0  0  0  0  0  0  0  0
   35.5060    5.7676   12.7318 H   0  0  0  0  0  0  0  0  0  0  0  0
   36.0363    5.8027   16.3547 H   0  0  0  0  0  0  0  0  0  0  0  0
   34.4460    4.8729   18.0071 H   0  0  0  0  0  0  0  0  0  0  0  0
   32.5720    3.4173   17.2581 H   0  0  0  0  0  0  0  0  0  0  0  0
   32.3008    2.8877   14.8412 H   0  0  0  0  0  0  0  0  0  0  0  0
   33.8841    3.8173   13.1776 H   0  0  0  0  0  0  0  0  0  0  0  0
  1  2  2  0
  2  3  1  0
  2  4  1  0
  4  5  1  0
  4 37  1  0
  4 38  1  0
  5  6  1  0
  6 10  2  0
  6  7  1  0
  7  8  2  0
  7 39  1  0
  8  9  1  0
  8 14  1  0
  9 10  1  0
 10 11  1  0
 11 12  2  0
 11 13  1  0
 14 19  1  0
 14 15  2  0
 15 16  1  0
 15 40  1  0
 16 17  2  0
 16 41  1  0
 17 18  1  0
 17 42  1  0
 18 19  2  0
 18 20  1  0
 19 43  1  0
 20 21  1  0
 20 44  1  0
 21 26  1  0
 21 22  1  0
 21 45  1  0
 22 23  1  0
 22 46  1  0
 22 47  1  0
 23 24  1  0
 23 48  1  0
 23 49  1  0
 24 25  1  0
 24 27  1  0
 25 26  1  0
 25 50  1  0
 25 51  1  0
 26 52  1  0
 26 53  1  0
 27 28  2  0
 27 29  2  0
 27 30  1  0
 30 31  1  0
 30 54  1  0
 30 55  1  0
 31 36  1  0
 31 32  2  0
 32 33  1  0
 32 56  1  0
 33 34  2  0
 33 57  1  0
 34 35  1  0
 34 58  1  0
 35 36  2  0
 35 59  1  0
 36 60  1  0
M  CHG  2   3  -1  13  -1
M  END
>  <s_m_entry_id>  (1) 
472

>  <i_f3d_flags>  (1) 
0

>  <r_epik_Ionization_Penalty>  (1) 
  0.0005

>  <r_epik_State_Penalty>  (1) 
  0.0002

>  <i_epik_Tot_Q>  (1) 
-2

>  <s_m_job_name>  (1) 
glide-dock_SP_ptp1b_no_cons

>  <r_i_docking_score>  (1) 
-7.897156818674

>  <r_i_glide_gscore>  (1) 
-7.897356818674

>  <r_i_glide_emodel>  (1) 
-119.60971040682

>  <index_string>  (1) 
19:0:0

$$$$
