16:0:0
     RDKit          3D

 42 45  0  0  1  0  0  0  0  0999 V2000
  -14.5010  -14.8640  -27.4290 C   0  0  0  0  0  0  0  0  0  0  0  0
  -14.9800  -15.6920  -26.4040 C   0  0  0  0  0  0  0  0  0  0  0  0
  -14.6590  -13.4820  -27.3220 C   0  0  0  0  0  0  0  0  0  0  0  0
  -15.6390  -15.1300  -25.3010 C   0  0  0  0  0  0  0  0  0  0  0  0
  -14.7900  -17.0840  -26.4860 N   0  0  0  0  0  0  0  0  0  0  0  0
  -15.2990  -12.9250  -26.2120 C   0  0  0  0  0  0  0  0  0  0  0  0
  -15.7990  -13.7450  -25.1990 C   0  0  0  0  0  0  0  0  0  0  0  0
  -16.1800  -16.0630  -24.2370 C   0  0  0  0  0  0  0  0  0  0  0  0
  -15.8670  -17.3640  -24.4900 N   0  0  0  0  0  0  0  0  0  0  0  0
  -16.8560  -15.7330  -23.2620 O   0  0  0  0  0  0  0  0  0  0  0  0
  -15.2090  -17.9040  -25.5790 C   0  0  0  0  0  0  0  0  0  0  0  0
  -13.8690  -15.3800  -28.5100 F   0  0  0  0  0  0  0  0  0  0  0  0
  -15.4420  -11.5840  -26.1250 F   0  0  0  0  0  0  0  0  0  0  0  0
  -15.0480  -19.3740  -25.7000 C   0  0  0  0  0  0  0  0  0  0  0  0
  -14.9790  -19.9520  -26.9740 C   0  0  0  0  0  0  0  0  0  0  0  0
  -14.8450  -21.3240  -27.1300 C   0  0  0  0  0  0  0  0  0  0  0  0
  -14.7610  -22.1610  -26.0130 C   0  0  0  0  0  0  0  0  0  0  0  0
  -14.8220  -21.5930  -24.7370 C   0  0  0  0  0  0  0  0  0  0  0  0
  -14.9780  -20.2160  -24.5790 C   0  0  0  0  0  0  0  0  0  0  0  0
  -14.6700  -23.6720  -26.1760 C   0  0  0  0  0  0  0  0  0  0  0  0
  -13.2960  -24.0740  -26.7260 C   0  0  0  0  0  0  0  0  0  0  0  0
  -13.2390  -25.5860  -27.0100 C   0  0  0  0  0  0  0  0  0  0  0  0
  -14.2910  -25.9580  -27.9560 N   0  0  0  0  0  0  0  0  0  0  0  0
  -15.6100  -25.6860  -27.3850 C   0  0  0  0  0  0  0  0  0  0  0  0
  -15.7700  -24.1790  -27.1180 C   0  0  0  0  0  0  0  0  0  0  0  0
  -14.2767  -12.8258  -28.1178 H   0  0  0  0  0  0  0  0  0  0  0  0
  -16.3128  -13.3066  -24.3308 H   0  0  0  0  0  0  0  0  0  0  0  0
  -16.1614  -18.0392  -23.7700 H   0  0  0  0  0  0  0  0  0  0  0  0
  -15.0319  -19.3083  -27.8644 H   0  0  0  0  0  0  0  0  0  0  0  0
  -14.8045  -21.7569  -28.1404 H   0  0  0  0  0  0  0  0  0  0  0  0
  -14.7463  -22.2381  -23.8493 H   0  0  0  0  0  0  0  0  0  0  0  0
  -15.0467  -19.7867  -23.5686 H   0  0  0  0  0  0  0  0  0  0  0  0
  -14.8065  -24.1298  -25.1852 H   0  0  0  0  0  0  0  0  0  0  0  0
  -13.1072  -23.5247  -27.6602 H   0  0  0  0  0  0  0  0  0  0  0  0
  -12.5311  -23.8284  -25.9746 H   0  0  0  0  0  0  0  0  0  0  0  0
  -12.2580  -25.8394  -27.4382 H   0  0  0  0  0  0  0  0  0  0  0  0
  -13.3890  -26.1358  -26.0691 H   0  0  0  0  0  0  0  0  0  0  0  0
  -14.1770  -25.4123  -28.8221 H   0  0  0  0  0  0  0  0  0  0  0  0
  -16.3869  -26.0149  -28.0908 H   0  0  0  0  0  0  0  0  0  0  0  0
  -15.7111  -26.2326  -26.4358 H   0  0  0  0  0  0  0  0  0  0  0  0
  -16.7519  -23.9969  -26.6567 H   0  0  0  0  0  0  0  0  0  0  0  0
  -15.6902  -23.6414  -28.0743 H   0  0  0  0  0  0  0  0  0  0  0  0
  1  3  2  0
  1  2  1  0
  1 12  1  0
  2  4  2  0
  2  5  1  0
  3  6  1  0
  4  7  1  0
  4  8  1  0
  5 11  2  0
  6 13  1  0
  6  7  2  0
  8 10  2  0
  8  9  1  0
  9 11  1  0
 11 14  1  0
 14 19  1  0
 14 15  2  0
 15 16  1  0
 16 17  2  0
 17 18  1  0
 17 20  1  0
 18 19  2  0
 20 21  1  0
 20 25  1  0
 21 22  1  0
 22 23  1  0
 23 24  1  0
 24 25  1  0
  3 26  1  0
  7 27  1  0
  9 28  1  0
 15 29  1  0
 16 30  1  0
 18 31  1  0
 19 32  1  0
 20 33  1  0
 21 34  1  0
 21 35  1  0
 22 36  1  0
 22 37  1  0
 23 38  1  0
 24 39  1  0
 24 40  1  0
 25 41  1  0
 25 42  1  0
M  END
>  <s_m_entry_id>  (1) 
2344

>  <MODEL>  (1) 
1

>  <REMARK>  (1) 
 VINA RESULT:   -12.456      0.000      0.000
 INTER + INTRA:         -14.400
 INTER:                 -13.912
 INTRA:                  -0.488
 UNBOUND:                -0.488
  Name = 8c
  2 active torsions:
  status: ('A' for Active; 'I' for Inactive)
    1  A    between atoms: C_11  and  C_12
    2  A    between atoms: C_15  and  C_20
                            x       y       z     vdW  Elec       q    Type
                         _______ _______ _______ _____ _____    ______ ____

>  <TORSDO>  (1) 
F 2

>  <s_m_Source_Path>  (1) 
/projects/mai/users/kmzp800_harry/pmx_colab/docking_jobs/tnks2/vina_prep/output

>  <s_m_Source_File>  (1) 
tnks_naive_vina.sdf

>  <i_m_Source_File_Index>  (1) 
17

>  <index_string>  (1) 
16:0:0

$$$$
