19:0:0
     RDKit          3D

 53 56  0  0  1  0  0  0  0  0999 V2000
   32.7464   34.7448   14.3800 F   0  0  0  0  0  0  0  0  0  0  0  0
   33.4685   34.9357   15.5090 C   0  0  0  0  0  0  0  0  0  0  0  0
   32.8206   35.1493   16.7233 C   0  0  0  0  0  0  0  0  0  0  0  0
   33.5406   35.1917   17.9260 C   0  0  0  0  0  0  0  0  0  0  0  0
   34.9517   35.2132   17.9009 C   0  0  0  0  0  0  0  0  0  0  0  0
   35.6109   35.1494   16.6564 C   0  0  0  0  0  0  0  0  0  0  0  0
   36.9610   35.2088   16.5820 F   0  0  0  0  0  0  0  0  0  0  0  0
   34.8665   34.9256   15.4891 C   0  0  0  0  0  0  0  0  0  0  0  0
   35.7020   35.2239   19.0485 O   0  0  0  0  0  0  0  0  0  0  0  0
   35.1739   35.8244   20.1523 C   0  0  0  0  0  0  0  0  0  0  0  0
   35.2611   37.1596   20.2687 C   0  0  0  0  0  0  0  0  0  0  0  0
   34.5520   34.9950   21.1912 C   0  0  0  0  0  0  0  0  0  0  0  0
   34.3568   33.7950   21.0071 O   0  0  0  0  0  0  0  0  0  0  0  0
   34.1974   35.6228   22.3520 N   0  0  0  0  0  0  0  0  0  0  0  0
   33.6951   34.8140   23.4840 C   0  0  0  0  0  0  0  0  0  0  0  0
   34.8491   34.2857   24.3609 C   0  0  0  0  0  0  0  0  0  0  0  0
   34.3631   33.6229   25.6610 C   0  0  0  0  0  0  0  0  0  0  0  0
   34.1521   34.5859   26.6710 O   0  0  0  0  0  0  0  0  0  0  0  0
   34.2887   37.0446   22.5290 C   0  0  0  0  0  0  0  0  0  0  0  0
   34.7988   37.8298   21.4739 C   0  0  0  0  0  0  0  0  0  0  0  0
   33.9087   37.6470   23.6742 N   0  0  0  0  0  0  0  0  0  0  0  0
   34.0152   38.9673   23.7687 C   0  0  0  0  0  0  0  0  0  0  0  0
   34.4743   39.7936   22.8286 N   0  0  0  0  0  0  0  0  0  0  0  0
   34.8610   39.2233   21.6669 C   0  0  0  0  0  0  0  0  0  0  0  0
   33.6208   39.5497   24.9529 N   0  0  0  0  0  0  0  0  0  0  0  0
   33.0739   38.8661   26.1187 C   0  0  0  0  0  0  0  0  0  0  0  0
   33.1531   39.7773   27.3535 C   0  0  0  0  0  0  0  0  0  0  0  0
   32.5223   39.0909   28.5729 C   0  0  0  0  0  0  0  0  0  0  0  0
   31.1740   38.7424   28.2834 O   0  0  0  0  0  0  0  0  0  0  0  0
   31.0528   37.8178   27.2084 C   0  0  0  0  0  0  0  0  0  0  0  0
   31.6079   38.4421   25.9164 C   0  0  0  0  0  0  0  0  0  0  0  0
   31.7440   35.1502   16.7576 H   0  0  0  0  0  0  0  0  0  0  0  0
   32.9835   35.2348   18.8491 H   0  0  0  0  0  0  0  0  0  0  0  0
   35.3522   34.7489   14.5557 H   0  0  0  0  0  0  0  0  0  0  0  0
   35.7273   37.7562   19.4974 H   0  0  0  0  0  0  0  0  0  0  0  0
   33.0031   35.3882   24.0999 H   0  0  0  0  0  0  0  0  0  0  0  0
   33.0909   33.9771   23.1303 H   0  0  0  0  0  0  0  0  0  0  0  0
   35.4039   33.5477   23.7820 H   0  0  0  0  0  0  0  0  0  0  0  0
   35.5578   35.0814   24.5929 H   0  0  0  0  0  0  0  0  0  0  0  0
   33.4430   33.0638   25.4911 H   0  0  0  0  0  0  0  0  0  0  0  0
   35.1104   32.9187   26.0278 H   0  0  0  0  0  0  0  0  0  0  0  0
   34.9942   34.7507   27.0869 H   0  0  0  0  0  0  0  0  0  0  0  0
   35.2459   39.8809   20.9030 H   0  0  0  0  0  0  0  0  0  0  0  0
   33.7514   40.5510   25.0380 H   0  0  0  0  0  0  0  0  0  0  0  0
   33.6773   37.9760   26.3084 H   0  0  0  0  0  0  0  0  0  0  0  0
   34.1896   40.0396   27.5685 H   0  0  0  0  0  0  0  0  0  0  0  0
   32.6244   40.7130   27.1613 H   0  0  0  0  0  0  0  0  0  0  0  0
   33.0893   38.2028   28.8555 H   0  0  0  0  0  0  0  0  0  0  0  0
   32.5330   39.7674   29.4283 H   0  0  0  0  0  0  0  0  0  0  0  0
   31.5775   36.8915   27.4471 H   0  0  0  0  0  0  0  0  0  0  0  0
   30.0004   37.5618   27.0886 H   0  0  0  0  0  0  0  0  0  0  0  0
   30.9994   39.3071   25.6464 H   0  0  0  0  0  0  0  0  0  0  0  0
   31.5199   37.7267   25.0988 H   0  0  0  0  0  0  0  0  0  0  0  0
  1  2  1  0
  2  8  2  0
  2  3  1  0
  3  4  2  0
  3 32  1  0
  4  5  1  0
  4 33  1  0
  5  6  2  0
  5  9  1  0
  6  7  1  0
  6  8  1  0
  8 34  1  0
  9 10  1  0
 10 11  2  0
 10 12  1  0
 11 20  1  0
 11 35  1  0
 12 13  2  0
 12 14  1  0
 14 15  1  0
 14 19  1  0
 15 16  1  0
 15 36  1  0
 15 37  1  0
 16 17  1  0
 16 38  1  0
 16 39  1  0
 17 18  1  0
 17 40  1  0
 17 41  1  0
 18 42  1  0
 19 20  2  0
 19 21  1  0
 20 24  1  0
 21 22  2  0
 22 23  1  0
 22 25  1  0
 23 24  2  0
 24 43  1  0
 25 26  1  0
 25 44  1  0
 26 31  1  0
 26 27  1  0
 26 45  1  0
 27 28  1  0
 27 46  1  0
 27 47  1  0
 28 29  1  0
 28 48  1  0
 28 49  1  0
 29 30  1  0
 30 31  1  0
 30 50  1  0
 30 51  1  0
 31 52  1  0
 31 53  1  0
M  END
>  <s_m_entry_id>  (1) 
258

>  <i_f3d_flags>  (1) 
0

>  <r_lp_tautomer_probability>  (1) 
1

>  <r_epik_Ionization_Penalty>  (1) 
  0.0000

>  <r_epik_State_Penalty>  (1) 
  0.0000

>  <i_epik_Tot_Q>  (1) 
0

>  <s_m_job_name>  (1) 
glide-dock_SP_p38_core_cons_top_1

>  <r_i_docking_score>  (1) 
-7.04264245892906

>  <r_i_glide_gscore>  (1) 
-7.04264245892906

>  <r_i_glide_emodel>  (1) 
-54.5544217696428

>  <index_string>  (1) 
19:0:0

$$$$
