23:0:0
     RDKit          3D

 39 41  0  0  1  0  0  0  0  0999 V2000
  -14.3590  -14.9540  -27.6560 C   0  0  0  0  0  0  0  0  0  0  0  0
  -14.8840  -15.7270  -26.6250 C   0  0  0  0  0  0  0  0  0  0  0  0
  -14.5430  -13.5770  -27.6260 C   0  0  0  0  0  0  0  0  0  0  0  0
  -15.6340  -15.1510  -25.5940 C   0  0  0  0  0  0  0  0  0  0  0  0
  -14.6290  -17.0900  -26.6440 N   0  0  0  0  0  0  0  0  0  0  0  0
  -15.2740  -13.0020  -26.5870 C   0  0  0  0  0  0  0  0  0  0  0  0
  -15.8380  -13.7750  -25.5710 C   0  0  0  0  0  0  0  0  0  0  0  0
  -16.2030  -16.0680  -24.5310 C   0  0  0  0  0  0  0  0  0  0  0  0
  -15.7590  -17.3460  -24.6730 N   0  0  0  0  0  0  0  0  0  0  0  0
  -17.0040  -15.7530  -23.6500 O   0  0  0  0  0  0  0  0  0  0  0  0
  -15.0330  -17.8840  -25.7140 C   0  0  0  0  0  0  0  0  0  0  0  0
  -15.4430  -11.6810  -26.5860 F   0  0  0  0  0  0  0  0  0  0  0  0
  -14.7640  -19.3240  -25.7810 C   0  0  0  0  0  0  0  0  0  0  0  0
  -15.0310  -19.9780  -26.9870 C   0  0  0  0  0  0  0  0  0  0  0  0
  -14.7450  -21.3140  -27.1380 C   0  0  0  0  0  0  0  0  0  0  0  0
  -14.1960  -22.0430  -26.0810 C   0  0  0  0  0  0  0  0  0  0  0  0
  -13.9590  -21.4040  -24.8590 C   0  0  0  0  0  0  0  0  0  0  0  0
  -14.2420  -20.0500  -24.7050 C   0  0  0  0  0  0  0  0  0  0  0  0
  -13.8100  -23.5140  -26.2760 C   0  0  0  0  0  0  0  0  0  0  0  0
  -13.1280  -24.0070  -24.9990 C   0  0  0  0  0  0  0  0  0  0  0  0
  -12.8370  -23.7040  -27.4430 C   0  0  0  0  0  0  0  0  0  0  0  0
  -15.0220  -24.3730  -26.6360 C   0  0  0  0  0  0  0  0  0  0  0  0
  -13.8068  -15.4257  -28.4821 H   0  0  0  0  0  0  0  0  0  0  0  0
  -14.1145  -12.9442  -28.4172 H   0  0  0  0  0  0  0  0  0  0  0  0
  -16.4301  -13.3072  -24.7706 H   0  0  0  0  0  0  0  0  0  0  0  0
  -15.9948  -17.9926  -23.9067 H   0  0  0  0  0  0  0  0  0  0  0  0
  -15.4744  -19.4181  -27.8236 H   0  0  0  0  0  0  0  0  0  0  0  0
  -14.9498  -21.8119  -28.0972 H   0  0  0  0  0  0  0  0  0  0  0  0
  -13.5463  -21.9755  -24.0145 H   0  0  0  0  0  0  0  0  0  0  0  0
  -14.0561  -19.5529  -23.7415 H   0  0  0  0  0  0  0  0  0  0  0  0
  -13.6663  -23.6179  -24.1222 H   0  0  0  0  0  0  0  0  0  0  0  0
  -13.1398  -25.1067  -24.9782 H   0  0  0  0  0  0  0  0  0  0  0  0
  -12.0874  -23.6510  -24.9782 H   0  0  0  0  0  0  0  0  0  0  0  0
  -11.8283  -23.9010  -27.0510 H   0  0  0  0  0  0  0  0  0  0  0  0
  -13.1640  -24.5553  -28.0582 H   0  0  0  0  0  0  0  0  0  0  0  0
  -12.8197  -22.7923  -28.0582 H   0  0  0  0  0  0  0  0  0  0  0  0
  -15.5120  -24.7203  -25.7144 H   0  0  0  0  0  0  0  0  0  0  0  0
  -15.7324  -23.7757  -27.2263 H   0  0  0  0  0  0  0  0  0  0  0  0
  -14.6938  -25.2412  -27.2263 H   0  0  0  0  0  0  0  0  0  0  0  0
  1  3  2  0
  1  2  1  0
  2  4  2  0
  2  5  1  0
  3  6  1  0
  4  7  1  0
  4  8  1  0
  5 11  2  0
  6 12  1  0
  6  7  2  0
  8 10  2  0
  8  9  1  0
  9 11  1  0
 11 13  1  0
 13 18  1  0
 13 14  2  0
 14 15  1  0
 15 16  2  0
 16 17  1  0
 16 19  1  0
 17 18  2  0
 19 20  1  0
 19 21  1  0
 19 22  1  0
  1 23  1  0
  3 24  1  0
  7 25  1  0
  9 26  1  0
 14 27  1  0
 15 28  1  0
 17 29  1  0
 18 30  1  0
 20 31  1  0
 20 32  1  0
 20 33  1  0
 21 34  1  0
 21 35  1  0
 21 36  1  0
 22 37  1  0
 22 38  1  0
 22 39  1  0
M  END
>  <s_m_entry_id>  (1) 
2488

>  <MODEL>  (1) 
1

>  <REMARK>  (1) 
 VINA RESULT:   -11.696      0.000      0.000
 INTER + INTRA:         -13.588
 INTER:                 -13.087
 INTRA:                  -0.501
 UNBOUND:                -0.525
  Name = 3b
  5 active torsions:
  status: ('A' for Active; 'I' for Inactive)
    1  A    between atoms: C_11  and  C_12
    2  A    between atoms: C_15  and  C_19
    3  A    between atoms: C_19  and  C_20
    4  A    between atoms: C_19  and  C_21
    5  A    between atoms: C_19  and  C_22
                            x       y       z     vdW  Elec       q    Type
                         _______ _______ _______ _____ _____    ______ ____

>  <TORSDO>  (1) 
F 2

>  <s_m_Source_Path>  (1) 
/projects/mai/users/kmzp800_harry/pmx_colab/docking_jobs/tnks2/vina_prep/output_mcs

>  <s_m_Source_File>  (1) 
tnks_mcs_vina__all_poses.sdf

>  <i_m_Source_File_Index>  (1) 
106

>  <index_string>  (1) 
23:0:0

$$$$
