19:0:0
     RDKit          3D

 41 43  0  0  1  0  0  0  0  0999 V2000
   39.1924   17.5212   12.6815 O   0  0  0  0  0  0  0  0  0  0  0  0
   40.3605   17.0696   12.6888 C   0  0  0  0  0  0  0  0  0  0  0  0
   41.2210   17.3070   11.8117 O   0  0  0  0  0  0  0  0  0  0  0  0
   40.7506   16.1440   13.8455 C   0  0  0  0  0  0  0  0  0  0  0  0
   42.1093   15.7308   13.7350 O   0  0  0  0  0  0  0  0  0  0  0  0
   42.5201   14.9304   14.7453 C   0  0  0  0  0  0  0  0  0  0  0  0
   42.1673   13.5646   14.8790 C   0  0  0  0  0  0  0  0  0  0  0  0
   41.1747   12.6864   13.5427 Br  0  0  0  0  0  0  0  0  0  0  0  0
   42.6125   12.9391   16.0064 C   0  0  0  0  0  0  0  0  0  0  0  0
   42.3393   11.5914   16.4779 C   0  0  0  0  0  0  0  0  0  0  0  0
   43.3770   10.7645   16.9498 C   0  0  0  0  0  0  0  0  0  0  0  0
   43.1034    9.4544   17.3763 C   0  0  0  0  0  0  0  0  0  0  0  0
   41.7906    8.9595   17.3290 C   0  0  0  0  0  0  0  0  0  0  0  0
   40.7386    9.7808   16.8831 C   0  0  0  0  0  0  0  0  0  0  0  0
   39.4180    9.2788   16.8488 N   0  0  0  0  0  0  0  0  0  0  0  0
   38.8152    8.5848   17.8321 C   0  0  0  0  0  0  0  0  0  0  0  0
   39.1321    8.6708   19.0196 O   0  0  0  0  0  0  0  0  0  0  0  0
   37.6755    7.7012   17.4045 C   0  0  0  0  0  0  0  0  0  0  0  0
   37.0320    6.8763   18.3557 C   0  0  0  0  0  0  0  0  0  0  0  0
   35.9849    6.0187   17.9678 C   0  0  0  0  0  0  0  0  0  0  0  0
   35.5731    5.9731   16.6230 C   0  0  0  0  0  0  0  0  0  0  0  0
   36.2010    6.7956   15.6687 C   0  0  0  0  0  0  0  0  0  0  0  0
   37.2462    7.6551   16.0559 C   0  0  0  0  0  0  0  0  0  0  0  0
   41.0188   11.0911   16.4519 C   0  0  0  0  0  0  0  0  0  0  0  0
   43.6322   14.0179   16.9132 S   0  0  0  0  0  0  0  0  0  0  0  0
   43.3575   15.3179   15.7614 C   0  0  0  0  0  0  0  0  0  0  0  0
   44.0177   16.5937   16.0389 C   0  0  0  0  0  0  0  0  0  0  0  0
   43.8514   17.5528   15.2537 O   0  0  0  0  0  0  0  0  0  0  0  0
   44.7478   16.6849   17.0484 O   0  0  0  0  0  0  0  0  0  0  0  0
   40.6028   16.6689   14.7887 H   0  0  0  0  0  0  0  0  0  0  0  0
   40.0888   15.2821   13.8552 H   0  0  0  0  0  0  0  0  0  0  0  0
   44.3889   11.1329   16.9808 H   0  0  0  0  0  0  0  0  0  0  0  0
   43.9001    8.8280   17.7418 H   0  0  0  0  0  0  0  0  0  0  0  0
   41.5888    7.9469   17.6418 H   0  0  0  0  0  0  0  0  0  0  0  0
   38.8922    9.4285   16.0037 H   0  0  0  0  0  0  0  0  0  0  0  0
   37.3434    6.8918   19.3913 H   0  0  0  0  0  0  0  0  0  0  0  0
   35.5004    5.3937   18.7034 H   0  0  0  0  0  0  0  0  0  0  0  0
   34.7675    5.3184   16.3252 H   0  0  0  0  0  0  0  0  0  0  0  0
   35.8801    6.7708   14.6381 H   0  0  0  0  0  0  0  0  0  0  0  0
   37.7117    8.2718   15.3012 H   0  0  0  0  0  0  0  0  0  0  0  0
   40.2173   11.7327   16.1236 H   0  0  0  0  0  0  0  0  0  0  0  0
  1  2  2  0
  2  3  1  0
  2  4  1  0
  4  5  1  0
  4 30  1  0
  4 31  1  0
  5  6  1  0
  6  7  1  0
  6 26  2  0
  7  8  1  0
  7  9  2  0
  9 10  1  0
  9 25  1  0
 10 11  2  0
 10 24  1  0
 11 12  1  0
 11 32  1  0
 12 13  2  0
 12 33  1  0
 13 14  1  0
 13 34  1  0
 14 15  1  0
 14 24  2  0
 15 16  1  0
 15 35  1  0
 16 17  2  0
 16 18  1  0
 18 19  2  0
 18 23  1  0
 19 20  1  0
 19 36  1  0
 20 21  2  0
 20 37  1  0
 21 22  1  0
 21 38  1  0
 22 23  2  0
 22 39  1  0
 23 40  1  0
 24 41  1  0
 25 26  1  0
 26 27  1  0
 27 28  2  0
 27 29  1  0
M  CHG  2   3  -1  29  -1
M  END
>  <s_m_entry_id>  (1) 
536

>  <s_m_Source_Path>  (1) 
/projects/mai/users/kmzp800_harry/pmx_colab/docking_jobs/ptp1b/glide-dock_SP_ptp1b_mcs_2

>  <s_m_Source_File>  (1) 
glide-dock_SP_ptp1b_mcs_2_pv.maegz

>  <i_m_Source_File_Index>  (1) 
21

>  <r_i_docking_score>  (1) 
-5.91281341088655

>  <r_i_glide_gscore>  (1) 
-5.91281341088655

>  <r_i_glide_emodel>  (1) 
-74.0712177454973

>  <index_string>  (1) 
19:0:0

$$$$
