21:0:0
     RDKit          3D

 45 48  0  0  1  0  0  0  0  0999 V2000
  -14.5540  -14.6670  -27.3900 C   0  0  0  0  0  0  0  0  0  0  0  0
  -15.0600  -15.5150  -26.3900 C   0  0  0  0  0  0  0  0  0  0  0  0
  -14.6830  -13.2850  -27.2420 C   0  0  0  0  0  0  0  0  0  0  0  0
  -15.7540  -14.9700  -25.3000 C   0  0  0  0  0  0  0  0  0  0  0  0
  -14.8510  -16.9040  -26.4750 N   0  0  0  0  0  0  0  0  0  0  0  0
  -15.3340  -12.7470  -26.1370 C   0  0  0  0  0  0  0  0  0  0  0  0
  -15.8910  -13.5840  -25.1660 C   0  0  0  0  0  0  0  0  0  0  0  0
  -16.3460  -15.9210  -24.2820 C   0  0  0  0  0  0  0  0  0  0  0  0
  -15.9570  -17.2110  -24.5020 N   0  0  0  0  0  0  0  0  0  0  0  0
  -17.1220  -15.6110  -23.3740 O   0  0  0  0  0  0  0  0  0  0  0  0
  -15.2640  -17.7370  -25.5780 C   0  0  0  0  0  0  0  0  0  0  0  0
  -13.8310  -15.1990  -28.6170 C   0  0  0  0  0  0  0  0  0  0  0  0
  -15.4190  -11.4040  -26.0250 F   0  0  0  0  0  0  0  0  0  0  0  0
  -15.0540  -19.2040  -25.7040 C   0  0  0  0  0  0  0  0  0  0  0  0
  -14.9700  -19.7810  -26.9820 C   0  0  0  0  0  0  0  0  0  0  0  0
  -14.8070  -21.1530  -27.1420 C   0  0  0  0  0  0  0  0  0  0  0  0
  -14.7140  -21.9890  -26.0260 C   0  0  0  0  0  0  0  0  0  0  0  0
  -14.7750  -21.4200  -24.7500 C   0  0  0  0  0  0  0  0  0  0  0  0
  -14.9490  -20.0450  -24.5880 C   0  0  0  0  0  0  0  0  0  0  0  0
  -14.6400  -23.5170  -26.1840 C   0  0  0  0  0  0  0  0  0  0  0  0
  -13.2500  -24.0720  -26.5920 C   0  0  0  0  0  0  0  0  0  0  0  0
  -13.2100  -25.5780  -27.0140 C   0  0  0  0  0  0  0  0  0  0  0  0
  -14.3880  -25.9330  -27.9200 N   0  0  0  0  0  0  0  0  0  0  0  0
  -15.7020  -25.5340  -27.2550 C   0  0  0  0  0  0  0  0  0  0  0  0
  -15.7170  -24.0050  -27.1630 C   0  0  0  0  0  0  0  0  0  0  0  0
  -14.2654  -12.6144  -28.0074 H   0  0  0  0  0  0  0  0  0  0  0  0
  -16.4304  -13.1583  -24.3070 H   0  0  0  0  0  0  0  0  0  0  0  0
  -16.2145  -17.8847  -23.7667 H   0  0  0  0  0  0  0  0  0  0  0  0
  -12.9825  -15.8234  -28.3006 H   0  0  0  0  0  0  0  0  0  0  0  0
  -14.5260  -15.8027  -29.2191 H   0  0  0  0  0  0  0  0  0  0  0  0
  -13.4614  -14.3559  -29.2191 H   0  0  0  0  0  0  0  0  0  0  0  0
  -15.0342  -19.1368  -27.8713 H   0  0  0  0  0  0  0  0  0  0  0  0
  -14.7510  -21.5826  -28.1531 H   0  0  0  0  0  0  0  0  0  0  0  0
  -14.6847  -22.0643  -23.8630 H   0  0  0  0  0  0  0  0  0  0  0  0
  -15.0042  -19.6177  -23.5759 H   0  0  0  0  0  0  0  0  0  0  0  0
  -14.8247  -23.9183  -25.1766 H   0  0  0  0  0  0  0  0  0  0  0  0
  -12.8850  -23.4748  -27.4406 H   0  0  0  0  0  0  0  0  0  0  0  0
  -12.6253  -24.0001  -25.6895 H   0  0  0  0  0  0  0  0  0  0  0  0
  -12.2716  -25.7740  -27.5533 H   0  0  0  0  0  0  0  0  0  0  0  0
  -13.2732  -26.1946  -26.1053 H   0  0  0  0  0  0  0  0  0  0  0  0
  -14.2929  -25.4310  -28.8143 H   0  0  0  0  0  0  0  0  0  0  0  0
  -16.5518  -25.8835  -27.8597 H   0  0  0  0  0  0  0  0  0  0  0  0
  -15.7871  -25.9862  -26.2559 H   0  0  0  0  0  0  0  0  0  0  0  0
  -16.7046  -23.6728  -26.8104 H   0  0  0  0  0  0  0  0  0  0  0  0
  -15.5103  -23.5857  -28.1587 H   0  0  0  0  0  0  0  0  0  0  0  0
  1  3  2  0
  1  2  1  0
  1 12  1  0
  2  4  2  0
  2  5  1  0
  3  6  1  0
  4  7  1  0
  4  8  1  0
  5 11  2  0
  6 13  1  0
  6  7  2  0
  8 10  2  0
  8  9  1  0
  9 11  1  0
 11 14  1  0
 14 19  1  0
 14 15  2  0
 15 16  1  0
 16 17  2  0
 17 18  1  0
 17 20  1  0
 18 19  2  0
 20 21  1  0
 20 25  1  0
 21 22  1  0
 22 23  1  0
 23 24  1  0
 24 25  1  0
  3 26  1  0
  7 27  1  0
  9 28  1  0
 12 29  1  0
 12 30  1  0
 12 31  1  0
 15 32  1  0
 16 33  1  0
 18 34  1  0
 19 35  1  0
 20 36  1  0
 21 37  1  0
 21 38  1  0
 22 39  1  0
 22 40  1  0
 23 41  1  0
 24 42  1  0
 24 43  1  0
 25 44  1  0
 25 45  1  0
M  END
>  <s_m_entry_id>  (1) 
2480

>  <MODEL>  (1) 
1

>  <REMARK>  (1) 
 VINA RESULT:   -11.655      0.000      0.000
 INTER + INTRA:         -13.481
 INTER:                 -13.006
 INTRA:                  -0.474
 UNBOUND:                -0.463
  Name = 8d
  3 active torsions:
  status: ('A' for Active; 'I' for Inactive)
    1  A    between atoms: C_1  and  C_18
    2  A    between atoms: C_11  and  C_12
    3  A    between atoms: C_15  and  C_20
                            x       y       z     vdW  Elec       q    Type
                         _______ _______ _______ _____ _____    ______ ____

>  <TORSDO>  (1) 
F 2

>  <s_m_Source_Path>  (1) 
/projects/mai/users/kmzp800_harry/pmx_colab/docking_jobs/tnks2/vina_prep/output_mcs

>  <s_m_Source_File>  (1) 
tnks_mcs_vina__all_poses.sdf

>  <i_m_Source_File_Index>  (1) 
98

>  <index_string>  (1) 
21:0:0

$$$$
