38:0:0
     RDKit          3D

 52 57  0  0  1  0  0  0  0  0999 V2000
   -5.4387   -4.0141   15.7101 C   0  0  0  0  0  0  0  0  0  0  0  0
   -4.6992   -2.6828   15.9115 C   0  0  0  0  0  0  0  0  0  0  0  0
   -3.9167   -2.3234   14.7347 N   0  0  0  0  0  0  0  0  0  0  0  0
   -4.6350   -2.3976   13.4718 C   0  0  0  0  0  0  0  0  0  0  0  0
   -5.3618   -3.7519   13.3576 C   0  0  0  0  0  0  0  0  0  0  0  0
   -6.1896   -3.9712   14.4982 O   0  0  0  0  0  0  0  0  0  0  0  0
   -2.5320   -2.0904   14.8134 C   0  0  0  0  0  0  0  0  0  0  0  0
   -1.7391   -2.8315   15.7116 C   0  0  0  0  0  0  0  0  0  0  0  0
   -0.3656   -2.5858   15.8163 C   0  0  0  0  0  0  0  0  0  0  0  0
    0.2474   -1.5710   15.0609 C   0  0  0  0  0  0  0  0  0  0  0  0
    1.6137   -1.3478   15.2908 N   0  0  0  0  0  0  0  0  0  0  0  0
    2.5261   -0.4323   14.7280 C   0  0  0  0  0  0  0  0  0  0  0  0
    2.1875    0.3802   13.7576 N   0  0  0  0  0  0  0  0  0  0  0  0
    3.1177    1.2571   13.2320 C   0  0  0  0  0  0  0  0  0  0  0  0
    4.4181    1.2883   13.6818 C   0  0  0  0  0  0  0  0  0  0  0  0
    4.7530    0.4905   14.7243 N   0  0  0  0  0  0  0  0  0  0  0  0
    5.9025    0.3840   15.4769 C   0  0  0  0  0  0  0  0  0  0  0  0
    5.6106   -0.5010   16.4865 C   0  0  0  0  0  0  0  0  0  0  0  0
    4.3641   -1.0589   16.3217 N   0  0  0  0  0  0  0  0  0  0  0  0
    3.8299   -0.4138   15.2940 C   0  0  0  0  0  0  0  0  0  0  0  0
    2.6467    2.1720   12.1595 C   0  0  0  0  0  0  0  0  0  0  0  0
    3.5575    2.6768   11.1904 C   0  0  0  0  0  0  0  0  0  0  0  0
    3.1497    3.5026   10.1306 C   0  0  0  0  0  0  0  0  0  0  0  0
    1.7949    3.8651   10.0217 C   0  0  0  0  0  0  0  0  0  0  0  0
    0.9899    4.6364    9.1275 C   0  0  0  0  0  0  0  0  0  0  0  0
   -0.2659    4.6508    9.5075 N   0  0  0  0  0  0  0  0  0  0  0  0
   -0.3274    3.9125   10.6390 N   0  0  0  0  0  0  0  0  0  0  0  0
    0.8895    3.3872   11.0177 C   0  0  0  0  0  0  0  0  0  0  0  0
    1.2876    2.5524   12.0695 C   0  0  0  0  0  0  0  0  0  0  0  0
   -0.5397   -0.8335   14.1501 C   0  0  0  0  0  0  0  0  0  0  0  0
   -1.9181   -1.0998   14.0175 C   0  0  0  0  0  0  0  0  0  0  0  0
   -6.1101   -4.1976   16.5518 H   0  0  0  0  0  0  0  0  0  0  0  0
   -4.7335   -4.8441   15.6841 H   0  0  0  0  0  0  0  0  0  0  0  0
   -4.0554   -2.7420   16.7829 H   0  0  0  0  0  0  0  0  0  0  0  0
   -5.4237   -1.8946   16.1102 H   0  0  0  0  0  0  0  0  0  0  0  0
   -5.3686   -1.5962   13.4167 H   0  0  0  0  0  0  0  0  0  0  0  0
   -3.9526   -2.2649   12.6351 H   0  0  0  0  0  0  0  0  0  0  0  0
   -5.9767   -3.7799   12.4574 H   0  0  0  0  0  0  0  0  0  0  0  0
   -4.6386   -4.5624   13.2732 H   0  0  0  0  0  0  0  0  0  0  0  0
   -2.1702   -3.5961   16.3347 H   0  0  0  0  0  0  0  0  0  0  0  0
    0.2136   -3.1793   16.5063 H   0  0  0  0  0  0  0  0  0  0  0  0
    2.0203   -1.8936   16.0437 H   0  0  0  0  0  0  0  0  0  0  0  0
    5.1914    1.9424   13.2940 H   0  0  0  0  0  0  0  0  0  0  0  0
    6.7709    0.9798   15.2321 H   0  0  0  0  0  0  0  0  0  0  0  0
    6.1860   -0.7795   17.3458 H   0  0  0  0  0  0  0  0  0  0  0  0
    4.5992    2.4059   11.2392 H   0  0  0  0  0  0  0  0  0  0  0  0
    3.8773    3.8449    9.4053 H   0  0  0  0  0  0  0  0  0  0  0  0
    1.2879    5.1677    8.2380 H   0  0  0  0  0  0  0  0  0  0  0  0
   -1.2107    3.7953   11.1173 H   0  0  0  0  0  0  0  0  0  0  0  0
    0.5732    2.1910   12.7967 H   0  0  0  0  0  0  0  0  0  0  0  0
   -0.1097   -0.0620   13.5373 H   0  0  0  0  0  0  0  0  0  0  0  0
   -2.4976   -0.5325   13.3076 H   0  0  0  0  0  0  0  0  0  0  0  0
  1  2  1  0
  1  6  1  0
  1 32  1  0
  1 33  1  0
  2  3  1  0
  2 34  1  0
  2 35  1  0
  3  4  1  0
  3  7  1  0
  4  5  1  0
  4 36  1  0
  4 37  1  0
  5  6  1  0
  5 38  1  0
  5 39  1  0
  7  8  2  0
  7 31  1  0
  8  9  1  0
  8 40  1  0
  9 10  2  0
  9 41  1  0
 10 11  1  0
 10 30  1  0
 11 12  1  0
 11 42  1  0
 12 13  2  0
 12 20  1  0
 13 14  1  0
 14 15  2  0
 14 21  1  0
 15 16  1  0
 15 43  1  0
 16 17  1  0
 16 20  1  0
 17 18  2  0
 17 44  1  0
 18 19  1  0
 18 45  1  0
 19 20  2  0
 21 22  2  0
 21 29  1  0
 22 23  1  0
 22 46  1  0
 23 24  2  0
 23 47  1  0
 24 25  1  0
 24 28  1  0
 25 26  2  0
 25 48  1  0
 26 27  1  0
 27 28  1  0
 27 49  1  0
 28 29  2  0
 29 50  1  0
 30 31  2  0
 30 51  1  0
 31 52  1  0
M  END
>  <s_m_entry_id>  (1) 
1116

>  <IC50[nM]>  (1) 
10000

>  <s_m_Source_Path>  (1) 
/projects/mai/users/kmzp800_harry/pmx_colab/docking_jobs/syk

>  <s_m_Source_File>  (1) 
tnks2_lig.sdf

>  <i_m_Source_File_Index>  (1) 
43

>  <s_m_job_name>  (1) 
glide-dock_SP_syk_mcs

>  <r_i_docking_score>  (1) 
-6.61221885856298

>  <r_i_glide_gscore>  (1) 
-6.61221885856298

>  <r_i_glide_emodel>  (1) 
-47.6250808067881

>  <index_string>  (1) 
38:0:0

$$$$
