26:0:0
     RDKit          3D

 37 39  0  0  1  0  0  0  0  0999 V2000
  -14.3911  -15.0657  -27.7795 C   0  0  0  0  0  0  0  0  0  0  0  0
  -14.9695  -15.8165  -26.7386 C   0  0  0  0  0  0  0  0  0  0  0  0
  -14.4483  -13.6628  -27.7549 C   0  0  0  0  0  0  0  0  0  0  0  0
  -15.6482  -15.1627  -25.6855 C   0  0  0  0  0  0  0  0  0  0  0  0
  -14.8049  -17.2043  -26.7418 N   0  0  0  0  0  0  0  0  0  0  0  0
  -15.1392  -13.0113  -26.7178 C   0  0  0  0  0  0  0  0  0  0  0  0
  -15.7462  -13.7533  -25.6806 C   0  0  0  0  0  0  0  0  0  0  0  0
  -15.2215  -11.6639  -26.7386 F   0  0  0  0  0  0  0  0  0  0  0  0
  -16.2160  -16.0231  -24.5931 C   0  0  0  0  0  0  0  0  0  0  0  0
  -15.9751  -17.3366  -24.7133 N   0  0  0  0  0  0  0  0  0  0  0  0
  -16.8482  -15.5727  -23.6463 O   0  0  0  0  0  0  0  0  0  0  0  0
  -15.2484  -17.9239  -25.7549 C   0  0  0  0  0  0  0  0  0  0  0  0
  -14.9963  -19.3834  -25.7604 C   0  0  0  0  0  0  0  0  0  0  0  0
  -14.8482  -20.0644  -26.9853 C   0  0  0  0  0  0  0  0  0  0  0  0
  -14.5204  -21.4253  -26.9975 C   0  0  0  0  0  0  0  0  0  0  0  0
  -14.3021  -22.1172  -25.7952 C   0  0  0  0  0  0  0  0  0  0  0  0
  -14.4907  -21.4444  -24.5665 C   0  0  0  0  0  0  0  0  0  0  0  0
  -14.8482  -20.0860  -24.5484 C   0  0  0  0  0  0  0  0  0  0  0  0
  -13.9876  -23.6005  -25.8228 C   0  0  0  0  0  0  0  0  0  0  0  0
  -13.2649  -23.9727  -24.6655 O   0  0  0  0  0  0  0  0  0  0  0  0
  -13.0593  -24.0622  -26.9604 C   0  0  0  0  0  0  0  0  0  0  0  0
  -15.3435  -24.3283  -25.9386 C   0  0  0  0  0  0  0  0  0  0  0  0
  -13.8669  -15.5659  -28.5807 H   0  0  0  0  0  0  0  0  0  0  0  0
  -13.9862  -13.0816  -28.5400 H   0  0  0  0  0  0  0  0  0  0  0  0
  -16.2684  -13.2411  -24.8844 H   0  0  0  0  0  0  0  0  0  0  0  0
  -16.3797  -17.9402  -24.0095 H   0  0  0  0  0  0  0  0  0  0  0  0
  -14.9354  -19.5463  -27.9285 H   0  0  0  0  0  0  0  0  0  0  0  0
  -14.4265  -21.9292  -27.9386 H   0  0  0  0  0  0  0  0  0  0  0  0
  -14.3733  -21.9657  -23.6273 H   0  0  0  0  0  0  0  0  0  0  0  0
  -14.9848  -19.5928  -23.5991 H   0  0  0  0  0  0  0  0  0  0  0  0
  -12.4011  -23.5885  -24.7153 H   0  0  0  0  0  0  0  0  0  0  0  0
  -13.4998  -23.9040  -27.9386 H   0  0  0  0  0  0  0  0  0  0  0  0
  -12.8675  -25.1339  -26.8871 H   0  0  0  0  0  0  0  0  0  0  0  0
  -12.0882  -23.5727  -26.9288 H   0  0  0  0  0  0  0  0  0  0  0  0
  -15.9160  -23.9589  -26.7901 H   0  0  0  0  0  0  0  0  0  0  0  0
  -15.2482  -25.4015  -26.0855 H   0  0  0  0  0  0  0  0  0  0  0  0
  -15.9498  -24.1701  -25.0463 H   0  0  0  0  0  0  0  0  0  0  0  0
  1  2  2  0
  1  3  1  0
  1 23  1  0
  2  4  1  0
  2  5  1  0
  3  6  2  0
  3 24  1  0
  4  7  2  0
  4  9  1  0
  5 12  2  0
  6  7  1  0
  6  8  1  0
  7 25  1  0
  9 10  1  0
  9 11  2  0
 10 12  1  0
 10 26  1  0
 12 13  1  0
 13 14  2  0
 13 18  1  0
 14 15  1  0
 14 27  1  0
 15 16  2  0
 15 28  1  0
 16 17  1  0
 16 19  1  0
 17 18  2  0
 17 29  1  0
 18 30  1  0
 19 20  1  0
 19 21  1  0
 19 22  1  0
 20 31  1  0
 21 32  1  0
 21 33  1  0
 21 34  1  0
 22 35  1  0
 22 36  1  0
 22 37  1  0
M  END
>  <s_m_entry_id>  (1) 
441

>  <Name>  (1) 
5d

>  <IC50[nM]>  (1) 
10.5

>  <s_m_Source_Path>  (1) 
/projects/mai/users/kmzp800_harry/pmx_colab/docking_jobs/tnks2

>  <s_m_Source_File>  (1) 
tnks2_lig.sdf

>  <i_m_Source_File_Index>  (1) 
27

>  <s_m_job_name>  (1) 
glide-dock_SP_tnks2_no_cons

>  <r_i_docking_score>  (1) 
-10.5180669198369

>  <r_i_glide_gscore>  (1) 
-10.5180669198369

>  <r_i_glide_emodel>  (1) 
-63.8729067423182

>  <index_string>  (1) 
26:0:0

$$$$
