22:0:0
     RDKit          3D

 46 49  0  0  1  0  0  0  0  0999 V2000
   37.7132   35.9695   18.8642 C   0  0  0  0  0  0  0  0  0  0  0  0
   38.8343   36.3367   18.1168 C   0  0  0  0  0  0  0  0  0  0  0  0
   38.7453   36.5510   16.7363 C   0  0  0  0  0  0  0  0  0  0  0  0
   37.5296   36.3489   16.0720 C   0  0  0  0  0  0  0  0  0  0  0  0
   36.3991   35.9485   16.8084 C   0  0  0  0  0  0  0  0  0  0  0  0
   36.4796   35.7840   18.2061 C   0  0  0  0  0  0  0  0  0  0  0  0
   35.4166   35.2684   18.9020 O   0  0  0  0  0  0  0  0  0  0  0  0
   35.1399   35.8176   20.1207 C   0  0  0  0  0  0  0  0  0  0  0  0
   34.5513   34.9893   21.1681 C   0  0  0  0  0  0  0  0  0  0  0  0
   34.3444   33.7906   20.9805 O   0  0  0  0  0  0  0  0  0  0  0  0
   34.2415   35.6114   22.3463 N   0  0  0  0  0  0  0  0  0  0  0  0
   33.7287   34.8275   23.4798 C   0  0  0  0  0  0  0  0  0  0  0  0
   35.2316   37.1588   20.2570 C   0  0  0  0  0  0  0  0  0  0  0  0
   34.8183   37.8257   21.4827 C   0  0  0  0  0  0  0  0  0  0  0  0
   34.3372   37.0317   22.5397 C   0  0  0  0  0  0  0  0  0  0  0  0
   34.8561   39.2210   21.6684 C   0  0  0  0  0  0  0  0  0  0  0  0
   34.4719   39.7911   22.8289 N   0  0  0  0  0  0  0  0  0  0  0  0
   34.0470   38.9621   23.7758 C   0  0  0  0  0  0  0  0  0  0  0  0
   33.9633   37.6350   23.6854 N   0  0  0  0  0  0  0  0  0  0  0  0
   33.6466   39.5493   24.9572 N   0  0  0  0  0  0  0  0  0  0  0  0
   33.0979   38.8180   26.0905 C   0  0  0  0  0  0  0  0  0  0  0  0
   33.0907   39.6950   27.3468 C   0  0  0  0  0  0  0  0  0  0  0  0
   32.4431   38.9419   28.5185 C   0  0  0  0  0  0  0  0  0  0  0  0
   31.1283   38.5259   28.1643 O   0  0  0  0  0  0  0  0  0  0  0  0
   31.1061   37.6212   27.0660 C   0  0  0  0  0  0  0  0  0  0  0  0
   31.6698   38.3120   25.8170 C   0  0  0  0  0  0  0  0  0  0  0  0
   37.8232   35.7633   19.9214 H   0  0  0  0  0  0  0  0  0  0  0  0
   39.7858   36.3500   18.6204 H   0  0  0  0  0  0  0  0  0  0  0  0
   39.6108   36.9095   16.2155 H   0  0  0  0  0  0  0  0  0  0  0  0
   37.4747   36.5157   15.0094 H   0  0  0  0  0  0  0  0  0  0  0  0
   35.4666   35.7710   16.3014 H   0  0  0  0  0  0  0  0  0  0  0  0
   34.3974   34.9336   24.3351 H   0  0  0  0  0  0  0  0  0  0  0  0
   32.7456   35.1938   23.7822 H   0  0  0  0  0  0  0  0  0  0  0  0
   33.6243   33.7601   23.2887 H   0  0  0  0  0  0  0  0  0  0  0  0
   35.5699   37.8033   19.4618 H   0  0  0  0  0  0  0  0  0  0  0  0
   35.1964   39.8850   20.8914 H   0  0  0  0  0  0  0  0  0  0  0  0
   33.7518   40.5542   25.0495 H   0  0  0  0  0  0  0  0  0  0  0  0
   33.7437   37.9596   26.2812 H   0  0  0  0  0  0  0  0  0  0  0  0
   34.1089   39.9876   27.6079 H   0  0  0  0  0  0  0  0  0  0  0  0
   32.5389   40.6176   27.1596 H   0  0  0  0  0  0  0  0  0  0  0  0
   33.0444   38.0761   28.8011 H   0  0  0  0  0  0  0  0  0  0  0  0
   32.3853   39.5907   29.3930 H   0  0  0  0  0  0  0  0  0  0  0  0
   31.6793   36.7240   27.3039 H   0  0  0  0  0  0  0  0  0  0  0  0
   30.0809   37.3005   26.8881 H   0  0  0  0  0  0  0  0  0  0  0  0
   31.0213   39.1426   25.5332 H   0  0  0  0  0  0  0  0  0  0  0  0
   31.6558   37.6097   24.9824 H   0  0  0  0  0  0  0  0  0  0  0  0
  1  6  2  0
  1  2  1  0
  1 27  1  0
  2  3  2  0
  2 28  1  0
  3  4  1  0
  3 29  1  0
  4  5  2  0
  4 30  1  0
  5  6  1  0
  5 31  1  0
  6  7  1  0
  7  8  1  0
  8  9  1  0
  8 13  2  0
  9 10  2  0
  9 11  1  0
 11 15  1  0
 11 12  1  0
 12 32  1  0
 12 33  1  0
 12 34  1  0
 13 14  1  0
 13 35  1  0
 14 15  2  0
 14 16  1  0
 15 19  1  0
 16 17  2  0
 16 36  1  0
 17 18  1  0
 18 19  2  0
 18 20  1  0
 20 21  1  0
 20 37  1  0
 21 26  1  0
 21 22  1  0
 21 38  1  0
 22 23  1  0
 22 39  1  0
 22 40  1  0
 23 24  1  0
 23 41  1  0
 23 42  1  0
 24 25  1  0
 25 26  1  0
 25 43  1  0
 25 44  1  0
 26 45  1  0
 26 46  1  0
M  END
>  <s_m_entry_id>  (1) 
261

>  <i_f3d_flags>  (1) 
0

>  <r_lp_tautomer_probability>  (1) 
1

>  <r_epik_Ionization_Penalty>  (1) 
  0.0000

>  <r_epik_State_Penalty>  (1) 
  0.0000

>  <i_epik_Tot_Q>  (1) 
0

>  <s_m_job_name>  (1) 
glide-dock_SP_p38_core_cons_top_1

>  <r_i_docking_score>  (1) 
-6.77435775292038

>  <r_i_glide_gscore>  (1) 
-6.77435775292038

>  <r_i_glide_emodel>  (1) 
-41.7958607893009

>  <index_string>  (1) 
22:0:0

$$$$
