19:0:0
     RDKit          3D

 37 39  0  0  1  0  0  0  0  0999 V2000
  -14.3760  -14.8850  -27.6770 C   0  0  0  0  0  0  0  0  0  0  0  0
  -14.8750  -15.6600  -26.6340 C   0  0  0  0  0  0  0  0  0  0  0  0
  -14.5840  -13.5090  -27.6580 C   0  0  0  0  0  0  0  0  0  0  0  0
  -15.6050  -15.0820  -25.5880 C   0  0  0  0  0  0  0  0  0  0  0  0
  -14.6090  -17.0250  -26.6500 N   0  0  0  0  0  0  0  0  0  0  0  0
  -15.2890  -12.9280  -26.6070 C   0  0  0  0  0  0  0  0  0  0  0  0
  -15.8090  -13.7070  -25.5660 C   0  0  0  0  0  0  0  0  0  0  0  0
  -16.1460  -15.9870  -24.4990 C   0  0  0  0  0  0  0  0  0  0  0  0
  -15.7930  -17.2800  -24.7020 N   0  0  0  0  0  0  0  0  0  0  0  0
  -16.8460  -15.6590  -23.5400 O   0  0  0  0  0  0  0  0  0  0  0  0
  -15.0420  -17.8170  -25.7300 C   0  0  0  0  0  0  0  0  0  0  0  0
  -15.4660  -11.5990  -26.6180 F   0  0  0  0  0  0  0  0  0  0  0  0
  -16.4930  -13.1420  -24.5480 F   0  0  0  0  0  0  0  0  0  0  0  0
  -14.7980  -19.2620  -25.7740 C   0  0  0  0  0  0  0  0  0  0  0  0
  -14.3660  -19.9650  -24.6430 C   0  0  0  0  0  0  0  0  0  0  0  0
  -14.1370  -21.3290  -24.7270 C   0  0  0  0  0  0  0  0  0  0  0  0
  -14.3410  -21.9990  -25.9360 C   0  0  0  0  0  0  0  0  0  0  0  0
  -14.7840  -21.3020  -27.0560 C   0  0  0  0  0  0  0  0  0  0  0  0
  -15.0080  -19.9440  -26.9780 C   0  0  0  0  0  0  0  0  0  0  0  0
  -13.9500  -23.4610  -26.0600 C   0  0  0  0  0  0  0  0  0  0  0  0
  -12.9140  -23.7020  -27.1580 C   0  0  0  0  0  0  0  0  0  0  0  0
  -15.2440  -24.2540  -26.1890 C   0  0  0  0  0  0  0  0  0  0  0  0
  -13.3090  -23.9870  -24.9350 O   0  0  0  0  0  0  0  0  0  0  0  0
  -13.8246  -15.3539  -28.5053 H   0  0  0  0  0  0  0  0  0  0  0  0
  -14.1921  -12.8814  -28.4719 H   0  0  0  0  0  0  0  0  0  0  0  0
  -16.1291  -17.9510  -23.9965 H   0  0  0  0  0  0  0  0  0  0  0  0
  -14.2089  -19.4365  -23.6912 H   0  0  0  0  0  0  0  0  0  0  0  0
  -13.7945  -21.8845  -23.8415 H   0  0  0  0  0  0  0  0  0  0  0  0
  -14.9554  -21.8344  -28.0032 H   0  0  0  0  0  0  0  0  0  0  0  0
  -15.3533  -19.3940  -27.8659 H   0  0  0  0  0  0  0  0  0  0  0  0
  -11.9400  -23.9286  -26.6998 H   0  0  0  0  0  0  0  0  0  0  0  0
  -13.2318  -24.5502  -27.7822 H   0  0  0  0  0  0  0  0  0  0  0  0
  -12.8248  -22.8006  -27.7822 H   0  0  0  0  0  0  0  0  0  0  0  0
  -15.6304  -24.4908  -25.1867 H   0  0  0  0  0  0  0  0  0  0  0  0
  -15.9874  -23.6562  -26.7367 H   0  0  0  0  0  0  0  0  0  0  0  0
  -15.0488  -25.1877  -26.7367 H   0  0  0  0  0  0  0  0  0  0  0  0
  -13.7385  -23.6346  -24.1156 H   0  0  0  0  0  0  0  0  0  0  0  0
  1  3  2  0
  1  2  1  0
  2  4  2  0
  2  5  1  0
  3  6  1  0
  4  7  1  0
  4  8  1  0
  5 11  2  0
  6  7  2  0
  6 12  1  0
  7 13  1  0
  8 10  2  0
  8  9  1  0
  9 11  1  0
 11 14  1  0
 14 15  2  0
 14 19  1  0
 15 16  1  0
 16 17  2  0
 17 18  1  0
 17 20  1  0
 18 19  2  0
 20 23  1  0
 20 21  1  0
 20 22  1  0
  1 24  1  0
  3 25  1  0
  9 26  1  0
 15 27  1  0
 16 28  1  0
 18 29  1  0
 19 30  1  0
 21 31  1  0
 21 32  1  0
 21 33  1  0
 22 34  1  0
 22 35  1  0
 22 36  1  0
 23 37  1  0
M  END
>  <s_m_entry_id>  (1) 
2478

>  <MODEL>  (1) 
1

>  <REMARK>  (1) 
 VINA RESULT:   -11.130      0.000      0.000
 INTER + INTRA:         -13.209
 INTER:                 -12.749
 INTRA:                  -0.459
 UNBOUND:                -0.452
  Name = 5j
  5 active torsions:
  status: ('A' for Active; 'I' for Inactive)
    1  A    between atoms: C_11  and  C_12
    2  A    between atoms: C_15  and  C_18
    3  A    between atoms: C_18  and  O_19
    4  A    between atoms: C_18  and  C_22
    5  A    between atoms: C_18  and  C_23
                            x       y       z     vdW  Elec       q    Type
                         _______ _______ _______ _____ _____    ______ ____

>  <TORSDO>  (1) 
F 3

>  <s_m_Source_Path>  (1) 
/projects/mai/users/kmzp800_harry/pmx_colab/docking_jobs/tnks2/vina_prep/output_mcs

>  <s_m_Source_File>  (1) 
tnks_mcs_vina__all_poses.sdf

>  <i_m_Source_File_Index>  (1) 
96

>  <index_string>  (1) 
19:0:0

$$$$
