5:0:0
     RDKit          3D

 41 43  0  0  1  0  0  0  0  0999 V2000
   33.5870   36.0050   20.1140 C   0  0  0  0  0  0  0  0  0  0  0  0
   33.5430   37.3890   20.2690 C   0  0  0  0  0  0  0  0  0  0  0  0
   33.3040   37.9380   21.5230 C   0  0  0  0  0  0  0  0  0  0  0  0
   33.2650   39.3170   21.7100 C   0  0  0  0  0  0  0  0  0  0  0  0
   33.0350   39.8220   22.9500 N   0  0  0  0  0  0  0  0  0  0  0  0
   32.8410   39.0030   24.0180 C   0  0  0  0  0  0  0  0  0  0  0  0
   32.5990   39.5710   25.3060 N   0  0  0  0  0  0  0  0  0  0  0  0
   32.8730   37.6520   23.8510 N   0  0  0  0  0  0  0  0  0  0  0  0
   33.1000   37.0960   22.6290 C   0  0  0  0  0  0  0  0  0  0  0  0
   33.1240   35.7370   22.4670 N   0  0  0  0  0  0  0  0  0  0  0  0
   32.8940   34.8680   23.6190 C   0  0  0  0  0  0  0  0  0  0  0  0
   33.3480   35.1800   21.2340 C   0  0  0  0  0  0  0  0  0  0  0  0
   33.3140   33.9260   21.0910 O   0  0  0  0  0  0  0  0  0  0  0  0
   32.4080   38.7640   26.5020 C   0  0  0  0  0  0  0  0  0  0  0  0
   32.6330   39.6100   27.7400 C   0  0  0  0  0  0  0  0  0  0  0  0
   30.9940   38.2220   26.5220 C   0  0  0  0  0  0  0  0  0  0  0  0
   33.8250   35.4820   18.8350 O   0  0  0  0  0  0  0  0  0  0  0  0
   37.4380   35.9640   18.0780 C   0  0  0  0  0  0  0  0  0  0  0  0
   36.2490   35.8380   18.8010 C   0  0  0  0  0  0  0  0  0  0  0  0
   35.0350   35.5930   18.1370 C   0  0  0  0  0  0  0  0  0  0  0  0
   35.0280   35.4940   16.7380 C   0  0  0  0  0  0  0  0  0  0  0  0
   33.8650   35.2720   16.0760 F   0  0  0  0  0  0  0  0  0  0  0  0
   36.2190   35.6210   16.0160 C   0  0  0  0  0  0  0  0  0  0  0  0
   37.4220   35.8540   16.6860 C   0  0  0  0  0  0  0  0  0  0  0  0
   38.5750   35.9750   15.9840 F   0  0  0  0  0  0  0  0  0  0  0  0
   33.6972   38.0459   19.4002 H   0  0  0  0  0  0  0  0  0  0  0  0
   33.4197   39.9947   20.8575 H   0  0  0  0  0  0  0  0  0  0  0  0
   32.5579   40.5966   25.3921 H   0  0  0  0  0  0  0  0  0  0  0  0
   33.0455   35.4404   24.5461 H   0  0  0  0  0  0  0  0  0  0  0  0
   31.8634   34.4845   23.5891 H   0  0  0  0  0  0  0  0  0  0  0  0
   33.5999   34.0249   23.5891 H   0  0  0  0  0  0  0  0  0  0  0  0
   33.1285   37.9328   26.4933 H   0  0  0  0  0  0  0  0  0  0  0  0
   32.4698   38.9963   28.6381 H   0  0  0  0  0  0  0  0  0  0  0  0
   33.6642   39.9929   27.7400 H   0  0  0  0  0  0  0  0  0  0  0  0
   31.9283   40.4546   27.7400 H   0  0  0  0  0  0  0  0  0  0  0  0
   30.6644   38.0957   27.5638 H   0  0  0  0  0  0  0  0  0  0  0  0
   30.3238   38.9270   26.0083 H   0  0  0  0  0  0  0  0  0  0  0  0
   30.9667   37.2497   26.0083 H   0  0  0  0  0  0  0  0  0  0  0  0
   38.3857   36.1496   18.6048 H   0  0  0  0  0  0  0  0  0  0  0  0
   36.2633   35.9312   19.8970 H   0  0  0  0  0  0  0  0  0  0  0  0
   36.2082   35.5373   14.9192 H   0  0  0  0  0  0  0  0  0  0  0  0
  1  2  2  0
  1 12  1  0
  1 17  1  0
  2  3  1  0
  3  4  2  0
  3  9  1  0
  4  5  1  0
  5  6  2  0
  6  7  1  0
  6  8  1  0
  7 14  1  0
  8  9  2  0
  9 10  1  0
 10 11  1  0
 10 12  1  0
 12 13  2  0
 14 16  1  0
 14 15  1  0
 17 20  1  0
 18 19  2  0
 18 24  1  0
 19 20  1  0
 20 21  2  0
 21 22  1  0
 21 23  1  0
 23 24  2  0
 24 25  1  0
  2 26  1  0
  4 27  1  0
  7 28  1  0
 11 29  1  0
 11 30  1  0
 11 31  1  0
 14 32  1  0
 15 33  1  0
 15 34  1  0
 15 35  1  0
 16 36  1  0
 16 37  1  0
 16 38  1  0
 18 39  1  0
 19 40  1  0
 23 41  1  0
M  END
>  <s_m_entry_id>  (1) 
54

>  <MODEL>  (1) 
1

>  <REMARK>  (1) 
 VINA RESULT:    -8.252      0.000      0.000
 INTER + INTRA:         -10.081
 INTER:                  -9.715
 INTRA:                  -0.366
 UNBOUND:                -0.382
  Name = /scratch/kmzp800/tmpdsbm7r4n/tmp2oc017za.pdb
  6 active torsions:
  status: ('A' for Active; 'I' for Inactive)
    1  A    between atoms: C3_3  and  O1_4
    2  A    between atoms: O1_4  and  C4_5
    3  A    between atoms: N2_11  and  C9_12
    4  A    between atoms: C9_12  and  C10_13
    5  A    between atoms: C9_12  and  C11_14
    6  A    between atoms: N4_17  and  C13_18
                            x       y       z     vdW  Elec       q    Type
                         _______ _______ _______ _____ _____    ______ ____

>  <TORSDO>  (1) 
F 3

>  <grid_id>  (1) 
p38-prepared

>  <grid_path>  (1) 
/projects/mai/users/kmzp800_harry/pmx_colab/docking_jobs/p38/vina_docking/input_files/p38_vina.pdbqt

>  <grid_filename>  (1) 
p38_vina.pdbqt

>  <docking_score>  (1) 
-8.252

>  <compound_name>  (1) 
lig_p38a_3fly

>  <index_string>  (1) 
5:0:0

$$$$
