14:0:0
     RDKit          3D

 37 39  0  0  1  0  0  0  0  0999 V2000
  -14.3400  -15.1970  -27.6620 C   0  0  0  0  0  0  0  0  0  0  0  0
  -14.8040  -15.9780  -26.6080 C   0  0  0  0  0  0  0  0  0  0  0  0
  -14.6160  -13.8370  -27.6560 C   0  0  0  0  0  0  0  0  0  0  0  0
  -15.5640  -15.4270  -25.5660 C   0  0  0  0  0  0  0  0  0  0  0  0
  -14.4790  -17.3230  -26.6140 N   0  0  0  0  0  0  0  0  0  0  0  0
  -15.3400  -13.2950  -26.5980 C   0  0  0  0  0  0  0  0  0  0  0  0
  -15.8350  -14.0680  -25.5540 C   0  0  0  0  0  0  0  0  0  0  0  0
  -16.0770  -16.3440  -24.4790 C   0  0  0  0  0  0  0  0  0  0  0  0
  -15.6920  -17.6300  -24.6930 N   0  0  0  0  0  0  0  0  0  0  0  0
  -16.7830  -16.0170  -23.5230 O   0  0  0  0  0  0  0  0  0  0  0  0
  -14.9210  -18.1370  -25.7230 C   0  0  0  0  0  0  0  0  0  0  0  0
  -15.6100  -11.6360  -26.5720 Cl  0  0  0  0  0  0  0  0  0  0  0  0
  -14.6570  -19.5700  -25.8220 C   0  0  0  0  0  0  0  0  0  0  0  0
  -14.1050  -20.2920  -24.7610 C   0  0  0  0  0  0  0  0  0  0  0  0
  -13.8360  -21.6410  -24.9250 C   0  0  0  0  0  0  0  0  0  0  0  0
  -14.1370  -22.2800  -26.1340 C   0  0  0  0  0  0  0  0  0  0  0  0
  -14.6960  -21.5590  -27.1800 C   0  0  0  0  0  0  0  0  0  0  0  0
  -14.9660  -20.2180  -27.0250 C   0  0  0  0  0  0  0  0  0  0  0  0
  -13.7180  -23.7170  -26.3750 C   0  0  0  0  0  0  0  0  0  0  0  0
  -12.7200  -23.8620  -27.4980 C   0  0  0  0  0  0  0  0  0  0  0  0
  -14.9980  -24.5200  -26.5480 C   0  0  0  0  0  0  0  0  0  0  0  0
  -12.9680  -24.3040  -25.3420 O   0  0  0  0  0  0  0  0  0  0  0  0
  -13.7655  -15.6489  -28.4841 H   0  0  0  0  0  0  0  0  0  0  0  0
  -14.2666  -13.1948  -28.4779 H   0  0  0  0  0  0  0  0  0  0  0  0
  -16.4239  -13.6147  -24.7430 H   0  0  0  0  0  0  0  0  0  0  0  0
  -16.0169  -18.3164  -23.9972 H   0  0  0  0  0  0  0  0  0  0  0  0
  -13.8861  -19.7942  -23.8048 H   0  0  0  0  0  0  0  0  0  0  0  0
  -13.3837  -22.2130  -24.1014 H   0  0  0  0  0  0  0  0  0  0  0  0
  -14.9233  -22.0592  -28.1330 H   0  0  0  0  0  0  0  0  0  0  0  0
  -15.4262  -19.6530  -27.8490 H   0  0  0  0  0  0  0  0  0  0  0  0
  -11.7140  -24.0082  -27.0779 H   0  0  0  0  0  0  0  0  0  0  0  0
  -12.9885  -24.7306  -28.1173 H   0  0  0  0  0  0  0  0  0  0  0  0
  -12.7302  -22.9529  -28.1173 H   0  0  0  0  0  0  0  0  0  0  0  0
  -15.4065  -24.7763  -25.5593 H   0  0  0  0  0  0  0  0  0  0  0  0
  -15.7339  -23.9214  -27.1049 H   0  0  0  0  0  0  0  0  0  0  0  0
  -14.7793  -25.4431  -27.1049 H   0  0  0  0  0  0  0  0  0  0  0  0
  -13.3322  -24.0189  -24.4667 H   0  0  0  0  0  0  0  0  0  0  0  0
  1  3  2  0
  1  2  1  0
  2  4  2  0
  2  5  1  0
  3  6  1  0
  4  7  1  0
  4  8  1  0
  5 11  2  0
  6 12  1  0
  6  7  2  0
  8 10  2  0
  8  9  1  0
  9 11  1  0
 11 13  1  0
 13 14  2  0
 13 18  1  0
 14 15  1  0
 15 16  2  0
 16 17  1  0
 16 19  1  0
 17 18  2  0
 19 22  1  0
 19 20  1  0
 19 21  1  0
  1 23  1  0
  3 24  1  0
  7 25  1  0
  9 26  1  0
 14 27  1  0
 15 28  1  0
 17 29  1  0
 18 30  1  0
 20 31  1  0
 20 32  1  0
 20 33  1  0
 21 34  1  0
 21 35  1  0
 21 36  1  0
 22 37  1  0
M  END
>  <s_m_entry_id>  (1) 
2447

>  <MODEL>  (1) 
1

>  <REMARK>  (1) 
 VINA RESULT:   -10.384      0.000      0.000
 INTER + INTRA:         -12.380
 INTER:                 -11.924
 INTRA:                  -0.457
 UNBOUND:                -0.478
  Name = 5e
  5 active torsions:
  status: ('A' for Active; 'I' for Inactive)
    1  A    between atoms: C_11  and  C_12
    2  A    between atoms: C_15  and  C_18
    3  A    between atoms: C_18  and  O_19
    4  A    between atoms: C_18  and  C_21
    5  A    between atoms: C_18  and  C_22
                            x       y       z     vdW  Elec       q    Type
                         _______ _______ _______ _____ _____    ______ ____

>  <TORSDO>  (1) 
F 3

>  <s_m_Source_Path>  (1) 
/projects/mai/users/kmzp800_harry/pmx_colab/docking_jobs/tnks2/vina_prep/output_mcs

>  <s_m_Source_File>  (1) 
tnks_mcs_vina__all_poses.sdf

>  <i_m_Source_File_Index>  (1) 
65

>  <index_string>  (1) 
14:0:0

$$$$
