14:0:0
     RDKit          3D

 46 49  0  0  1  0  0  0  0  0999 V2000
   38.9469   37.1450   15.2442 F   0  0  0  0  0  0  0  0  0  0  0  0
   38.1224   36.5750   16.1467 C   0  0  0  0  0  0  0  0  0  0  0  0
   38.5497   36.3493   17.4700 C   0  0  0  0  0  0  0  0  0  0  0  0
   37.6080   35.9494   18.4404 C   0  0  0  0  0  0  0  0  0  0  0  0
   36.2694   35.6789   18.0649 C   0  0  0  0  0  0  0  0  0  0  0  0
   35.8871   35.7966   16.7190 C   0  0  0  0  0  0  0  0  0  0  0  0
   36.7944   36.3096   15.7799 C   0  0  0  0  0  0  0  0  0  0  0  0
   35.3640   35.1631   18.9528 O   0  0  0  0  0  0  0  0  0  0  0  0
   35.1251   35.7984   20.1421 C   0  0  0  0  0  0  0  0  0  0  0  0
   35.2191   37.1432   20.2671 C   0  0  0  0  0  0  0  0  0  0  0  0
   34.5362   34.9798   21.2004 C   0  0  0  0  0  0  0  0  0  0  0  0
   34.2956   33.7872   21.0153 O   0  0  0  0  0  0  0  0  0  0  0  0
   34.2411   35.6051   22.3762 N   0  0  0  0  0  0  0  0  0  0  0  0
   33.7372   34.8031   23.5027 C   0  0  0  0  0  0  0  0  0  0  0  0
   34.3239   37.0266   22.5524 C   0  0  0  0  0  0  0  0  0  0  0  0
   34.8111   37.8111   21.4871 C   0  0  0  0  0  0  0  0  0  0  0  0
   33.9339   37.6309   23.6945 N   0  0  0  0  0  0  0  0  0  0  0  0
   34.0070   38.9579   23.7664 C   0  0  0  0  0  0  0  0  0  0  0  0
   34.4438   39.7841   22.8140 N   0  0  0  0  0  0  0  0  0  0  0  0
   34.8598   39.2071   21.6689 C   0  0  0  0  0  0  0  0  0  0  0  0
   33.6057   39.5506   24.9432 N   0  0  0  0  0  0  0  0  0  0  0  0
   33.0646   38.8766   26.1166 C   0  0  0  0  0  0  0  0  0  0  0  0
   33.1008   39.8159   27.3316 C   0  0  0  0  0  0  0  0  0  0  0  0
   32.4716   39.1410   28.5597 C   0  0  0  0  0  0  0  0  0  0  0  0
   31.1404   38.7419   28.2593 O   0  0  0  0  0  0  0  0  0  0  0  0
   31.0626   37.7911   27.2038 C   0  0  0  0  0  0  0  0  0  0  0  0
   31.6147   38.4055   25.9064 C   0  0  0  0  0  0  0  0  0  0  0  0
   39.5715   36.5576   17.7511 H   0  0  0  0  0  0  0  0  0  0  0  0
   37.9219   35.8179   19.4658 H   0  0  0  0  0  0  0  0  0  0  0  0
   34.8790   35.5427   16.4197 H   0  0  0  0  0  0  0  0  0  0  0  0
   36.4682   36.5120   14.7718 H   0  0  0  0  0  0  0  0  0  0  0  0
   35.5665   37.7676   19.4571 H   0  0  0  0  0  0  0  0  0  0  0  0
   34.1154   35.1754   24.4547 H   0  0  0  0  0  0  0  0  0  0  0  0
   32.6479   34.8480   23.5332 H   0  0  0  0  0  0  0  0  0  0  0  0
   34.0316   33.7529   23.4581 H   0  0  0  0  0  0  0  0  0  0  0  0
   35.2173   39.8629   20.8916 H   0  0  0  0  0  0  0  0  0  0  0  0
   33.7463   40.5506   25.0214 H   0  0  0  0  0  0  0  0  0  0  0  0
   33.6918   38.0104   26.3317 H   0  0  0  0  0  0  0  0  0  0  0  0
   34.1259   40.1113   27.5522 H   0  0  0  0  0  0  0  0  0  0  0  0
   32.5534   40.7332   27.1104 H   0  0  0  0  0  0  0  0  0  0  0  0
   33.0596   38.2797   28.8775 H   0  0  0  0  0  0  0  0  0  0  0  0
   32.4474   39.8373   29.3970 H   0  0  0  0  0  0  0  0  0  0  0  0
   31.6137   36.8895   27.4715 H   0  0  0  0  0  0  0  0  0  0  0  0
   30.0219   37.4964   27.0748 H   0  0  0  0  0  0  0  0  0  0  0  0
   30.9856   39.2440   25.6081 H   0  0  0  0  0  0  0  0  0  0  0  0
   31.5591   37.6726   25.1016 H   0  0  0  0  0  0  0  0  0  0  0  0
  1  2  1  0
  2  7  2  0
  2  3  1  0
  3  4  2  0
  3 28  1  0
  4  5  1  0
  4 29  1  0
  5  6  2  0
  5  8  1  0
  6  7  1  0
  6 30  1  0
  7 31  1  0
  8  9  1  0
  9 10  2  0
  9 11  1  0
 10 16  1  0
 10 32  1  0
 11 12  2  0
 11 13  1  0
 13 14  1  0
 13 15  1  0
 14 33  1  0
 14 34  1  0
 14 35  1  0
 15 16  2  0
 15 17  1  0
 16 20  1  0
 17 18  2  0
 18 19  1  0
 18 21  1  0
 19 20  2  0
 20 36  1  0
 21 22  1  0
 21 37  1  0
 22 27  1  0
 22 23  1  0
 22 38  1  0
 23 24  1  0
 23 39  1  0
 23 40  1  0
 24 25  1  0
 24 41  1  0
 24 42  1  0
 25 26  1  0
 26 27  1  0
 26 43  1  0
 26 44  1  0
 27 45  1  0
 27 46  1  0
M  END
>  <s_m_entry_id>  (1) 
255

>  <i_f3d_flags>  (1) 
0

>  <r_lp_tautomer_probability>  (1) 
1

>  <r_epik_Ionization_Penalty>  (1) 
  0.0000

>  <r_epik_State_Penalty>  (1) 
  0.0000

>  <i_epik_Tot_Q>  (1) 
0

>  <s_m_job_name>  (1) 
glide-dock_SP_p38_core_cons_top_1

>  <r_i_docking_score>  (1) 
-7.12654828805117

>  <r_i_glide_gscore>  (1) 
-7.12654828805117

>  <r_i_glide_emodel>  (1) 
-46.0030726681961

>  <index_string>  (1) 
14:0:0

$$$$
