0:0:0
     RDKit          3D

 49 51  0  0  1  0  0  0  0  0999 V2000
   33.8345   34.8550   23.6688 C   0  0  0  0  0  0  0  0  0  0  0  0
   35.1084   35.9315   20.2775 C   0  0  0  0  0  0  0  0  0  0  0  0
   35.2703   37.2618   20.4493 C   0  0  0  0  0  0  0  0  0  0  0  0
   34.8921   37.8936   21.7087 C   0  0  0  0  0  0  0  0  0  0  0  0
   34.9356   39.2810   21.9372 C   0  0  0  0  0  0  0  0  0  0  0  0
   34.4919   39.8287   23.0893 N   0  0  0  0  0  0  0  0  0  0  0  0
   34.5514   35.0864   21.3350 C   0  0  0  0  0  0  0  0  0  0  0  0
   34.3230   33.8959   21.1293 O   0  0  0  0  0  0  0  0  0  0  0  0
   34.3023   35.6749   22.5385 N   0  0  0  0  0  0  0  0  0  0  0  0
   34.3987   37.0849   22.7517 C   0  0  0  0  0  0  0  0  0  0  0  0
   33.9891   37.6548   23.9017 N   0  0  0  0  0  0  0  0  0  0  0  0
   34.0211   38.9795   24.0023 C   0  0  0  0  0  0  0  0  0  0  0  0
   33.4563   39.5495   25.1232 N   0  0  0  0  0  0  0  0  0  0  0  0
   33.9180   33.7768   23.5152 H   0  0  0  0  0  0  0  0  0  0  0  0
   34.4134   35.0838   24.5660 H   0  0  0  0  0  0  0  0  0  0  0  0
   32.7867   35.0740   23.8828 H   0  0  0  0  0  0  0  0  0  0  0  0
   35.6460   37.8974   19.6605 H   0  0  0  0  0  0  0  0  0  0  0  0
   35.3028   39.9500   21.1767 H   0  0  0  0  0  0  0  0  0  0  0  0
   33.5636   40.5520   25.2171 H   0  0  0  0  0  0  0  0  0  0  0  0
   32.8572   38.8344   26.2492 C   0  0  0  0  0  0  0  0  0  0  0  0
   32.6707   39.8089   27.4355 C   0  0  0  0  0  0  0  0  0  0  0  0
   31.5215   38.1533   25.8445 C   0  0  0  0  0  0  0  0  0  0  0  0
   33.5597   38.0555   26.5493 H   0  0  0  0  0  0  0  0  0  0  0  0
   31.9491   39.3856   28.1340 H   0  0  0  0  0  0  0  0  0  0  0  0
   33.9482   40.1047   28.2495 C   0  0  0  0  0  0  0  0  0  0  0  0
   32.2171   40.7384   27.0888 H   0  0  0  0  0  0  0  0  0  0  0  0
   30.7523   38.9027   25.6524 H   0  0  0  0  0  0  0  0  0  0  0  0
   31.6531   37.6325   24.8971 H   0  0  0  0  0  0  0  0  0  0  0  0
   31.0068   37.1193   26.8662 C   0  0  0  0  0  0  0  0  0  0  0  0
   31.8348   36.5681   27.3113 H   0  0  0  0  0  0  0  0  0  0  0  0
   30.4676   37.6098   27.6768 H   0  0  0  0  0  0  0  0  0  0  0  0
   30.1524   36.1913   26.2247 O   0  0  0  0  0  0  0  0  0  0  0  0
   34.9523   40.7480   27.4892 O   0  0  0  0  0  0  0  0  0  0  0  0
   34.3571   39.1839   28.6658 H   0  0  0  0  0  0  0  0  0  0  0  0
   33.6970   40.7480   29.0937 H   0  0  0  0  0  0  0  0  0  0  0  0
   34.5517   41.4455   26.9742 H   0  0  0  0  0  0  0  0  0  0  0  0
   29.4349   35.9502   26.8047 H   0  0  0  0  0  0  0  0  0  0  0  0
   35.3576   35.2841   19.0943 O   0  0  0  0  0  0  0  0  0  0  0  0
   37.9027   36.5980   16.0501 C   0  0  0  0  0  0  0  0  0  0  0  0
   38.4465   36.3494   17.3297 C   0  0  0  0  0  0  0  0  0  0  0  0
   37.5903   36.0294   18.4047 C   0  0  0  0  0  0  0  0  0  0  0  0
   36.2223   35.7765   18.1535 C   0  0  0  0  0  0  0  0  0  0  0  0
   35.7517   35.8423   16.8367 C   0  0  0  0  0  0  0  0  0  0  0  0
   36.5515   36.3360   15.8014 C   0  0  0  0  0  0  0  0  0  0  0  0
   38.6436   37.1491   15.0700 F   0  0  0  0  0  0  0  0  0  0  0  0
   39.4925   36.5478   17.5157 H   0  0  0  0  0  0  0  0  0  0  0  0
   38.0900   35.9490   19.6580 F   0  0  0  0  0  0  0  0  0  0  0  0
   34.7302   35.5512   16.6305 H   0  0  0  0  0  0  0  0  0  0  0  0
   36.1346   36.5061   14.8212 H   0  0  0  0  0  0  0  0  0  0  0  0
  1  9  1  0
  1 14  1  0
  1 15  1  0
  1 16  1  0
  2  3  2  0
  2  7  1  0
  2 38  1  0
  3  4  1  0
  3 17  1  0
  4  5  2  0
  4 10  1  0
  5  6  1  0
  5 18  1  0
  6 12  2  0
  7  8  2  0
  7  9  1  0
  9 10  1  0
 10 11  2  0
 11 12  1  0
 12 13  1  0
 13 19  1  0
 13 20  1  0
 20 21  1  0
 20 22  1  0
 20 23  1  0
 21 24  1  0
 21 25  1  0
 21 26  1  0
 22 27  1  0
 22 28  1  0
 22 29  1  0
 25 33  1  0
 25 34  1  0
 25 35  1  0
 29 30  1  0
 29 31  1  0
 29 32  1  0
 32 37  1  0
 33 36  1  0
 38 42  1  0
 39 40  2  0
 39 44  1  0
 39 45  1  0
 40 41  1  0
 40 46  1  0
 41 42  2  0
 41 47  1  0
 42 43  1  0
 43 44  2  0
 43 48  1  0
 44 49  1  0
M  END
>  <s_m_entry_id>  (1) 
818

>  <s_m_Source_Path>  (1) 
/projects/mai/users/kmzp800_harry/pmx_colab/docking_jobs/p38/glide-dock_SP_p38_mcs_docking_2

>  <s_m_Source_File>  (1) 
glide-dock_SP_p38_mcs_docking_2_pv.maegz

>  <i_m_Source_File_Index>  (1) 
2

>  <s_pdb_PDB_TITLE>  (1) 
MX MODEL

>  <r_i_docking_score>  (1) 
-8.07297267644391

>  <r_i_glide_gscore>  (1) 
-8.07297267644391

>  <r_i_glide_emodel>  (1) 
-57.1377858559476

>  <index_string>  (1) 
0:0:0

$$$$
