9:0:0
     RDKit          3D

 35 36  0  0  1  0  0  0  0  0999 V2000
   42.3270   12.8530   15.7170 C   0  0  0  0  0  0  0  0  0  0  0  0
   43.3960   13.7170   16.6890 S   0  0  0  0  0  0  0  0  0  0  0  0
   43.2900   15.1730   15.8670 C   0  0  0  0  0  0  0  0  0  0  0  0
   42.4040   15.0210   14.8020 C   0  0  0  0  0  0  0  0  0  0  0  0
   41.8660   13.7100   14.7010 C   0  0  0  0  0  0  0  0  0  0  0  0
   40.7630   13.1080   13.2430 Br  0  0  0  0  0  0  0  0  0  0  0  0
   42.5260    9.2210   16.8130 C   0  0  0  0  0  0  0  0  0  0  0  0
   42.8570   10.5650   16.6300 C   0  0  0  0  0  0  0  0  0  0  0  0
   41.9880   11.4280   15.9490 C   0  0  0  0  0  0  0  0  0  0  0  0
   40.7860   10.9120   15.4410 C   0  0  0  0  0  0  0  0  0  0  0  0
   40.4450    9.5630   15.6200 C   0  0  0  0  0  0  0  0  0  0  0  0
   41.3220    8.7230   16.3110 C   0  0  0  0  0  0  0  0  0  0  0  0
   39.2190    9.0170   15.1140 N   0  0  0  0  0  0  0  0  0  0  0  0
   37.9650    8.9360   15.8030 C   0  0  0  0  0  0  0  0  0  0  0  0
   37.8450    9.3710   16.9810 O   0  0  0  0  0  0  0  0  0  0  0  0
   36.8730    8.3680   15.1480 O   0  0  0  0  0  0  0  0  0  0  0  0
   36.9830    7.8220   13.8410 C   0  0  0  0  0  0  0  0  0  0  0  0
   44.0200   16.3960   16.2380 C   0  0  0  0  0  0  0  0  0  0  0  0
   44.5510   16.4920   17.3750 O   0  0  0  0  0  0  0  0  0  0  0  0
   44.1290   17.4550   15.3450 O   0  0  0  0  0  0  0  0  0  0  0  0
   42.1300   16.0980   13.9460 O   0  0  0  0  0  0  0  0  0  0  0  0
   41.0260   16.9780   14.0860 C   0  0  0  0  0  0  0  0  0  0  0  0
   40.3910   17.1930   12.7600 C   0  0  0  0  0  0  0  0  0  0  0  0
   41.1010   17.2370   11.7220 O   0  0  0  0  0  0  0  0  0  0  0  0
   39.0110   17.3020   12.6600 O   0  0  0  0  0  0  0  0  0  0  0  0
   43.2142    8.5540   17.3530 H   0  0  0  0  0  0  0  0  0  0  0  0
   43.8090   10.9501   17.0242 H   0  0  0  0  0  0  0  0  0  0  0  0
   40.1004   11.5757   14.8938 H   0  0  0  0  0  0  0  0  0  0  0  0
   41.0627    7.6645   16.4602 H   0  0  0  0  0  0  0  0  0  0  0  0
   39.2423    8.6438   14.1543 H   0  0  0  0  0  0  0  0  0  0  0  0
   37.1998    6.7458   13.9103 H   0  0  0  0  0  0  0  0  0  0  0  0
   36.0367    7.9713   13.3004 H   0  0  0  0  0  0  0  0  0  0  0  0
   37.7976    8.3261   13.3004 H   0  0  0  0  0  0  0  0  0  0  0  0
   40.2918   16.5378   14.7768 H   0  0  0  0  0  0  0  0  0  0  0  0
   41.3745   17.9418   14.4856 H   0  0  0  0  0  0  0  0  0  0  0  0
  1  9  1  0
  1  2  1  0
  1  5  2  0
  2  3  1  0
  3 18  1  0
  3  4  2  0
  4  5  1  0
  4 21  1  0
  5  6  1  0
  7  8  2  0
  7 12  1  0
  7 26  1  0
  8  9  1  0
  8 27  1  0
  9 10  2  0
 10 11  1  0
 10 28  1  0
 11 12  2  0
 11 13  1  0
 12 29  1  0
 13 14  1  0
 13 30  1  0
 14 15  2  0
 14 16  1  0
 16 17  1  0
 17 31  1  0
 17 32  1  0
 17 33  1  0
 18 19  1  0
 18 20  2  0
 21 22  1  0
 22 23  1  0
 22 34  1  0
 22 35  1  0
 23 24  2  0
 23 25  1  0
M  CHG  2  19  -1  25  -1
M  END
>  <s_m_entry_id>  (1) 
1226

>  <MODEL>  (1) 
1

>  <REMARK>  (1) 
 VINA RESULT:    -7.202      0.000      0.000
 INTER + INTRA:         -10.485
 INTER:                 -10.545
 INTRA:                   0.061
 UNBOUND:                -0.335
  Name = /scratch/kmzp800/tmpeqd7qdar/tmp6ehk1ac9.pdb
  8 active torsions:
  status: ('A' for Active; 'I' for Inactive)
    1  A    between atoms: C3_3  and  C4_4
    2  A    between atoms: C5_6  and  C6_7
    3  A    between atoms: C7_10  and  O3_11
    4  A    between atoms: O3_11  and  C8_12
    5  A    between atoms: C8_12  and  C9_13
    6  A    between atoms: C12_19  and  N1_20
    7  A    between atoms: C13_21  and  O7_23
    8  A    between atoms: O7_23  and  C14_24
                            x       y       z     vdW  Elec       q    Type
                         _______ _______ _______ _____ _____    ______ ____

>  <TORSDO>  (1) 
F 7

>  <grid_id>  (1) 
ptp1b-prepared

>  <grid_path>  (1) 
ptp1b_vina.pdbqt

>  <grid_filename>  (1) 
ptp1b_vina.pdbqt

>  <docking_score>  (1) 
-7.202

>  <compound_name>  (1) 
lig_23471

>  <index_string>  (1) 
9:0:0

>  <s_m_Source_Path>  (1) 
/projects/mai/users/kmzp800_harry/pmx_colab/docking_jobs/ptp1b

>  <s_m_Source_File>  (1) 
ptp1b_confs_vina_mcs.sdf

>  <i_m_Source_File_Index>  (1) 
10

$$$$
