26:0:0
     RDKit          3D

 37 39  0  0  1  0  0  0  0  0999 V2000
  -14.4455  -14.8360  -27.6868 C   0  0  0  0  0  0  0  0  0  0  0  0
  -15.0568  -15.6288  -26.6906 C   0  0  0  0  0  0  0  0  0  0  0  0
  -14.5149  -13.4295  -27.6067 C   0  0  0  0  0  0  0  0  0  0  0  0
  -15.7656  -15.0288  -25.6404 C   0  0  0  0  0  0  0  0  0  0  0  0
  -14.8706  -17.0089  -26.7692 N   0  0  0  0  0  0  0  0  0  0  0  0
  -15.2204  -12.8325  -26.5588 C   0  0  0  0  0  0  0  0  0  0  0  0
  -15.8390  -13.6239  -25.5804 C   0  0  0  0  0  0  0  0  0  0  0  0
  -16.3789  -15.9420  -24.6102 C   0  0  0  0  0  0  0  0  0  0  0  0
  -16.1202  -17.2412  -24.8134 N   0  0  0  0  0  0  0  0  0  0  0  0
  -17.0561  -15.5751  -23.6604 O   0  0  0  0  0  0  0  0  0  0  0  0
  -15.3836  -17.7808  -25.8500 C   0  0  0  0  0  0  0  0  0  0  0  0
  -15.2062  -19.2587  -25.9283 C   0  0  0  0  0  0  0  0  0  0  0  0
  -14.7802  -19.8413  -27.1340 C   0  0  0  0  0  0  0  0  0  0  0  0
  -14.5360  -21.2097  -27.2179 C   0  0  0  0  0  0  0  0  0  0  0  0
  -14.7415  -22.0544  -26.1115 C   0  0  0  0  0  0  0  0  0  0  0  0
  -15.2139  -21.4771  -24.9139 C   0  0  0  0  0  0  0  0  0  0  0  0
  -15.4464  -20.0956  -24.8156 C   0  0  0  0  0  0  0  0  0  0  0  0
  -14.4518  -23.5506  -26.1834 C   0  0  0  0  0  0  0  0  0  0  0  0
  -14.1510  -23.9723  -27.5074 O   0  0  0  0  0  0  0  0  0  0  0  0
  -13.1863  -23.8472  -25.3540 C   0  0  0  0  0  0  0  0  0  0  0  0
  -15.6965  -24.3193  -25.6999 C   0  0  0  0  0  0  0  0  0  0  0  0
  -16.4483  -12.7730  -24.3358 Cl  0  0  0  0  0  0  0  0  0  0  0  0
  -13.9215  -15.2920  -28.5033 H   0  0  0  0  0  0  0  0  0  0  0  0
  -14.0459  -12.8252  -28.3494 H   0  0  0  0  0  0  0  0  0  0  0  0
  -15.2549  -11.7568  -26.4905 H   0  0  0  0  0  0  0  0  0  0  0  0
  -16.5314  -17.8822  -24.1498 H   0  0  0  0  0  0  0  0  0  0  0  0
  -14.6062  -19.2359  -28.0056 H   0  0  0  0  0  0  0  0  0  0  0  0
  -14.1809  -21.5685  -28.1665 H   0  0  0  0  0  0  0  0  0  0  0  0
  -15.3836  -22.0975  -24.0463 H   0  0  0  0  0  0  0  0  0  0  0  0
  -15.7954  -19.6937  -23.8792 H   0  0  0  0  0  0  0  0  0  0  0  0
  -13.9482  -24.8931  -27.5166 H   0  0  0  0  0  0  0  0  0  0  0  0
  -12.3539  -23.2579  -25.7266 H   0  0  0  0  0  0  0  0  0  0  0  0
  -12.8400  -24.8841  -25.3735 H   0  0  0  0  0  0  0  0  0  0  0  0
  -13.3281  -23.5678  -24.3108 H   0  0  0  0  0  0  0  0  0  0  0  0
  -16.5650  -24.0508  -26.3040 H   0  0  0  0  0  0  0  0  0  0  0  0
  -15.5689  -25.3949  -25.8604 H   0  0  0  0  0  0  0  0  0  0  0  0
  -15.9369  -24.1314  -24.6592 H   0  0  0  0  0  0  0  0  0  0  0  0
  1  2  2  0
  1  3  1  0
  1 23  1  0
  2  4  1  0
  2  5  1  0
  3  6  2  0
  3 24  1  0
  4  7  2  0
  4  8  1  0
  5 11  2  0
  6  7  1  0
  6 25  1  0
  7 22  1  0
  8  9  1  0
  8 10  2  0
  9 11  1  0
  9 26  1  0
 11 12  1  0
 12 13  2  0
 12 17  1  0
 13 14  1  0
 13 27  1  0
 14 15  2  0
 14 28  1  0
 15 16  1  0
 15 18  1  0
 16 17  2  0
 16 29  1  0
 17 30  1  0
 18 19  1  0
 18 20  1  0
 18 21  1  0
 19 31  1  0
 20 32  1  0
 20 33  1  0
 20 34  1  0
 21 35  1  0
 21 36  1  0
 21 37  1  0
M  END
>  <s_m_entry_id>  (1) 
523

>  <Name>  (1) 
5c

>  <IC50[nM]>  (1) 
50

>  <s_m_Source_Path>  (1) 
/projects/mai/users/kmzp800_harry/pmx_colab/docking_jobs/tnks2

>  <s_m_Source_File>  (1) 
tnks2_lig.sdf

>  <i_m_Source_File_Index>  (1) 
17

>  <s_m_job_name>  (1) 
glide-dock_SP_tnks_mcs_fallabck

>  <r_i_docking_score>  (1) 
-8.77939445535409

>  <r_i_glide_gscore>  (1) 
-8.77939445535409

>  <r_i_glide_emodel>  (1) 
-44.5881518561496

>  <index_string>  (1) 
26:0:0

$$$$
