23:0:0
     RDKit          3D

 51 54  0  0  1  0  0  0  0  0999 V2000
   -3.6834    4.8824    8.5475 C   0  0  0  0  0  0  0  0  0  0  0  0
   -3.0614    5.0378    9.8113 O   0  0  0  0  0  0  0  0  0  0  0  0
   -1.6954    4.8671    9.9000 C   0  0  0  0  0  0  0  0  0  0  0  0
   -0.8739    4.4521    8.8208 C   0  0  0  0  0  0  0  0  0  0  0  0
    0.5110    4.2848    8.9992 C   0  0  0  0  0  0  0  0  0  0  0  0
    1.0943    4.5239   10.2541 C   0  0  0  0  0  0  0  0  0  0  0  0
    2.4664    4.3140   10.4308 N   0  0  0  0  0  0  0  0  0  0  0  0
    3.0419    3.6228   11.5031 C   0  0  0  0  0  0  0  0  0  0  0  0
    2.3701    2.6333   12.0171 N   0  0  0  0  0  0  0  0  0  0  0  0
    2.8553    1.9617   13.1137 C   0  0  0  0  0  0  0  0  0  0  0  0
    4.0781    2.2728   13.6679 C   0  0  0  0  0  0  0  0  0  0  0  0
    4.7941    3.2881   13.1094 N   0  0  0  0  0  0  0  0  0  0  0  0
    6.0301    3.8247   13.4179 C   0  0  0  0  0  0  0  0  0  0  0  0
    6.2736    4.8040   12.4938 C   0  0  0  0  0  0  0  0  0  0  0  0
    5.1981    4.9439   11.6266 N   0  0  0  0  0  0  0  0  0  0  0  0
    4.3169    4.0125   11.9938 C   0  0  0  0  0  0  0  0  0  0  0  0
    1.9996    0.8585   13.6370 C   0  0  0  0  0  0  0  0  0  0  0  0
    2.6198   -0.3205   14.1187 C   0  0  0  0  0  0  0  0  0  0  0  0
    1.8735   -1.4076   14.6177 C   0  0  0  0  0  0  0  0  0  0  0  0
    0.4658   -1.3504   14.6351 C   0  0  0  0  0  0  0  0  0  0  0  0
   -0.1680   -0.1923   14.1556 C   0  0  0  0  0  0  0  0  0  0  0  0
    0.5749    0.9134   13.6950 C   0  0  0  0  0  0  0  0  0  0  0  0
   -0.2135    2.1476   13.2988 C   0  0  0  0  0  0  0  0  0  0  0  0
   -0.3705   -2.5046   15.1035 C   0  0  0  0  0  0  0  0  0  0  0  0
   -1.4033   -2.8191   14.5164 O   0  0  0  0  0  0  0  0  0  0  0  0
    0.0241   -3.1183   16.2174 N   0  0  0  0  0  0  0  0  0  0  0  0
    0.2877    4.9628   11.3245 C   0  0  0  0  0  0  0  0  0  0  0  0
   -1.1102    5.1259   11.1589 C   0  0  0  0  0  0  0  0  0  0  0  0
   -1.9624    5.5208   12.1695 O   0  0  0  0  0  0  0  0  0  0  0  0
   -1.4085    5.8121   13.4409 C   0  0  0  0  0  0  0  0  0  0  0  0
   -4.7531    5.0632    8.6511 H   0  0  0  0  0  0  0  0  0  0  0  0
   -3.2998    5.6042    7.8242 H   0  0  0  0  0  0  0  0  0  0  0  0
   -3.5583    3.8691    8.1640 H   0  0  0  0  0  0  0  0  0  0  0  0
   -1.2805    4.2443    7.8436 H   0  0  0  0  0  0  0  0  0  0  0  0
    1.1235    3.9481    8.1771 H   0  0  0  0  0  0  0  0  0  0  0  0
    3.0684    5.0200   10.0309 H   0  0  0  0  0  0  0  0  0  0  0  0
    4.5098    1.7687   14.5251 H   0  0  0  0  0  0  0  0  0  0  0  0
    6.6212    3.4244   14.2268 H   0  0  0  0  0  0  0  0  0  0  0  0
    7.1507    5.4260   12.3775 H   0  0  0  0  0  0  0  0  0  0  0  0
    3.6959   -0.3982   14.1008 H   0  0  0  0  0  0  0  0  0  0  0  0
    2.3893   -2.2922   14.9616 H   0  0  0  0  0  0  0  0  0  0  0  0
   -1.2474   -0.1411   14.1673 H   0  0  0  0  0  0  0  0  0  0  0  0
    0.2817    3.0431   13.6704 H   0  0  0  0  0  0  0  0  0  0  0  0
   -0.3064    2.2118   12.2146 H   0  0  0  0  0  0  0  0  0  0  0  0
   -1.2168    2.1313   13.7210 H   0  0  0  0  0  0  0  0  0  0  0  0
   -0.5336   -3.8773   16.5846 H   0  0  0  0  0  0  0  0  0  0  0  0
    0.8304   -2.7968   16.7398 H   0  0  0  0  0  0  0  0  0  0  0  0
    0.7634    5.1547   12.2741 H   0  0  0  0  0  0  0  0  0  0  0  0
   -2.2162    6.0039   14.1467 H   0  0  0  0  0  0  0  0  0  0  0  0
   -0.8420    4.9725   13.8368 H   0  0  0  0  0  0  0  0  0  0  0  0
   -0.7673    6.6941   13.4071 H   0  0  0  0  0  0  0  0  0  0  0  0
  1  2  1  0
  1 31  1  0
  1 32  1  0
  1 33  1  0
  2  3  1  0
  3  4  2  0
  3 28  1  0
  4  5  1  0
  4 34  1  0
  5  6  2  0
  5 35  1  0
  6  7  1  0
  6 27  1  0
  7  8  1  0
  7 36  1  0
  8  9  2  0
  8 16  1  0
  9 10  1  0
 10 11  2  0
 10 17  1  0
 11 12  1  0
 11 37  1  0
 12 13  1  0
 12 16  1  0
 13 14  2  0
 13 38  1  0
 14 15  1  0
 14 39  1  0
 15 16  2  0
 17 18  2  0
 17 22  1  0
 18 19  1  0
 18 40  1  0
 19 20  2  0
 19 41  1  0
 20 21  1  0
 20 24  1  0
 21 22  2  0
 21 42  1  0
 22 23  1  0
 23 43  1  0
 23 44  1  0
 23 45  1  0
 24 25  2  0
 24 26  1  0
 26 46  1  0
 26 47  1  0
 27 28  2  0
 27 48  1  0
 28 29  1  0
 29 30  1  0
 30 49  1  0
 30 50  1  0
 30 51  1  0
M  END
>  <s_m_entry_id>  (1) 
703

>  <IC50[nM]>  (1) 
113

>  <s_m_Source_Path>  (1) 
/projects/mai/users/kmzp800_harry/pmx_colab/docking_jobs/syk

>  <s_m_Source_File>  (1) 
tnks2_lig.sdf

>  <i_m_Source_File_Index>  (1) 
24

>  <s_m_job_name>  (1) 
glide-dock_SP_tnks2_no_const

>  <r_i_docking_score>  (1) 
-7.5400036243405

>  <r_i_glide_gscore>  (1) 
-7.5400036243405

>  <r_i_glide_emodel>  (1) 
-71.9641764353566

>  <index_string>  (1) 
23:0:0

$$$$
