20:0:0
     RDKit          3D

 48 51  0  0  1  0  0  0  0  0999 V2000
    5.5090   -0.6240   16.4120 C   0  0  0  0  0  0  0  0  0  0  0  0
    4.2200   -1.0160   16.2450 N   0  0  0  0  0  0  0  0  0  0  0  0
    3.7960   -0.2750   15.2070 C   0  0  0  0  0  0  0  0  0  0  0  0
    2.5290   -0.2960   14.6300 C   0  0  0  0  0  0  0  0  0  0  0  0
    1.5160   -1.1740   15.1400 N   0  0  0  0  0  0  0  0  0  0  0  0
    2.2990    0.5430   13.5760 N   0  0  0  0  0  0  0  0  0  0  0  0
    3.2650    1.3830   13.0860 C   0  0  0  0  0  0  0  0  0  0  0  0
    4.5380    1.3830   13.6890 C   0  0  0  0  0  0  0  0  0  0  0  0
    4.7380    0.5430   14.7320 N   0  0  0  0  0  0  0  0  0  0  0  0
    5.8380    0.3500   15.4710 C   0  0  0  0  0  0  0  0  0  0  0  0
    2.9690    2.2720   11.9430 C   0  0  0  0  0  0  0  0  0  0  0  0
    3.9770    2.6000   11.0280 C   0  0  0  0  0  0  0  0  0  0  0  0
    3.7060    3.4380    9.9460 C   0  0  0  0  0  0  0  0  0  0  0  0
    2.4220    3.9610    9.7630 C   0  0  0  0  0  0  0  0  0  0  0  0
    2.1980    4.7730    8.7000 F   0  0  0  0  0  0  0  0  0  0  0  0
    1.3930    3.6440   10.6730 C   0  0  0  0  0  0  0  0  0  0  0  0
    1.6830    2.8000   11.7560 C   0  0  0  0  0  0  0  0  0  0  0  0
    0.0200    4.1730   10.5220 C   0  0  0  0  0  0  0  0  0  0  0  0
   -0.4580    4.9790   11.3640 O   0  0  0  0  0  0  0  0  0  0  0  0
   -0.7850    3.7730    9.4160 N   0  0  0  0  0  0  0  0  0  0  0  0
    0.1690   -1.3210   14.6690 C   0  0  0  0  0  0  0  0  0  0  0  0
   -0.4860   -2.5340   14.8930 C   0  0  0  0  0  0  0  0  0  0  0  0
   -1.7970   -2.7230   14.4530 C   0  0  0  0  0  0  0  0  0  0  0  0
   -2.4740   -1.6950   13.7770 C   0  0  0  0  0  0  0  0  0  0  0  0
   -1.8250   -0.4730   13.5470 C   0  0  0  0  0  0  0  0  0  0  0  0
   -0.5040   -0.2930   13.9950 C   0  0  0  0  0  0  0  0  0  0  0  0
   -3.7880   -1.8670   13.3280 O   0  0  0  0  0  0  0  0  0  0  0  0
   -4.2970   -3.1220   12.8980 C   0  0  0  0  0  0  0  0  0  0  0  0
   -2.5090    0.5440   12.8720 O   0  0  0  0  0  0  0  0  0  0  0  0
   -1.9130    1.3230   11.8450 C   0  0  0  0  0  0  0  0  0  0  0  0
    6.1935   -1.0175   17.1779 H   0  0  0  0  0  0  0  0  0  0  0  0
    1.7871   -1.7678   15.9368 H   0  0  0  0  0  0  0  0  0  0  0  0
    5.3406    2.0416   13.3257 H   0  0  0  0  0  0  0  0  0  0  0  0
    6.8069    0.8583   15.3580 H   0  0  0  0  0  0  0  0  0  0  0  0
    4.9903    2.1938   11.1634 H   0  0  0  0  0  0  0  0  0  0  0  0
    4.5059    3.6885    9.2336 H   0  0  0  0  0  0  0  0  0  0  0  0
    0.8868    2.5477   12.4718 H   0  0  0  0  0  0  0  0  0  0  0  0
   -1.7407    4.1434    9.3140 H   0  0  0  0  0  0  0  0  0  0  0  0
   -0.4111    3.1135    8.7187 H   0  0  0  0  0  0  0  0  0  0  0  0
    0.0353   -3.3466   15.4202 H   0  0  0  0  0  0  0  0  0  0  0  0
   -2.3027   -3.6824   14.6367 H   0  0  0  0  0  0  0  0  0  0  0  0
    0.0062    0.6646   13.8145 H   0  0  0  0  0  0  0  0  0  0  0  0
   -4.5463   -3.7367   13.7755 H   0  0  0  0  0  0  0  0  0  0  0  0
   -5.2017   -2.9629   12.2928 H   0  0  0  0  0  0  0  0  0  0  0  0
   -3.5371   -3.6380   12.2928 H   0  0  0  0  0  0  0  0  0  0  0  0
   -1.3034    2.1198   12.2961 H   0  0  0  0  0  0  0  0  0  0  0  0
   -1.2737    0.6806   11.2217 H   0  0  0  0  0  0  0  0  0  0  0  0
   -2.7003    1.7721   11.2217 H   0  0  0  0  0  0  0  0  0  0  0  0
  1  2  1  0
  1 10  2  0
  2  3  2  0
  3  4  1  0
  3  9  1  0
  4  5  1  0
  4  6  2  0
  5 21  1  0
  6  7  1  0
  7  8  2  0
  7 11  1  0
  8  9  1  0
  9 10  1  0
 11 12  2  0
 11 17  1  0
 12 13  1  0
 13 14  2  0
 14 16  1  0
 14 15  1  0
 16 17  2  0
 16 18  1  0
 18 19  2  0
 18 20  1  0
 21 22  2  0
 21 26  1  0
 22 23  1  0
 23 24  2  0
 24 25  1  0
 24 27  1  0
 25 26  2  0
 25 29  1  0
 27 28  1  0
 29 30  1  0
  1 31  1  0
  5 32  1  0
  8 33  1  0
 10 34  1  0
 12 35  1  0
 13 36  1  0
 17 37  1  0
 20 38  1  0
 20 39  1  0
 22 40  1  0
 23 41  1  0
 26 42  1  0
 28 43  1  0
 28 44  1  0
 28 45  1  0
 30 46  1  0
 30 47  1  0
 30 48  1  0
M  END
>  <s_m_entry_id>  (1) 
21

>  <MODEL>  (1) 
1

>  <REMARK>  (1) 
 VINA RESULT:    -9.603      0.000      0.000
 INTER + INTRA:         -13.073
 INTER:                 -12.410
 INTRA:                  -0.663
 UNBOUND:                -0.663
  Name = /scratch/kmzp800/tmpb48deveb/tmp5iyj0rhq.pdb
  7 active torsions:
  status: ('A' for Active; 'I' for Inactive)
    1  A    between atoms: N2_5  and  C4_6
    2  A    between atoms: C7_9  and  O1_10
    3  A    between atoms: O1_10  and  C8_11
    4  A    between atoms: C9_12  and  O2_13
    5  A    between atoms: O2_13  and  C10_14
    6  A    between atoms: C12_17  and  C13_18
    7  A    between atoms: C17_23  and  C18_24
                            x       y       z     vdW  Elec       q    Type
                         _______ _______ _______ _____ _____    ______ ____

>  <TORSDO>  (1) 
F 5

>  <grid_id>  (1) 
syk-prepared

>  <grid_path>  (1) 
syk_vina.pdbqt

>  <grid_filename>  (1) 
syk_vina.pdbqt

>  <docking_score>  (1) 
-9.603

>  <compound_name>  (1) 
CHEMBL3265008

>  <index_string>  (1) 
20:0:0

>  <s_m_Source_Path>  (1) 
/projects/mai/users/kmzp800_harry/pmx_colab/docking_jobs/syk/vina_prep/output

>  <s_m_Source_File>  (1) 
ptp1b_docked_conformers.sdf

>  <i_m_Source_File_Index>  (1) 
21

$$$$
