0:0:0
     RDKit          3D

 49 52  0  0  1  0  0  0  0  0999 V2000
   32.7387   34.7026   14.3881 F   0  0  0  0  0  0  0  0  0  0  0  0
   33.4630   34.9187   15.5106 C   0  0  0  0  0  0  0  0  0  0  0  0
   34.8622   34.9194   15.4891 C   0  0  0  0  0  0  0  0  0  0  0  0
   35.6086   35.1494   16.6513 C   0  0  0  0  0  0  0  0  0  0  0  0
   36.9590   35.2036   16.5722 F   0  0  0  0  0  0  0  0  0  0  0  0
   34.9521   35.2288   17.8949 C   0  0  0  0  0  0  0  0  0  0  0  0
   33.5398   35.2272   17.9228 C   0  0  0  0  0  0  0  0  0  0  0  0
   32.8173   35.1493   16.7236 C   0  0  0  0  0  0  0  0  0  0  0  0
   35.7082   35.2352   19.0387 O   0  0  0  0  0  0  0  0  0  0  0  0
   35.1804   35.8263   20.1455 C   0  0  0  0  0  0  0  0  0  0  0  0
   35.2624   37.1625   20.2657 C   0  0  0  0  0  0  0  0  0  0  0  0
   34.5521   34.9935   21.1725 C   0  0  0  0  0  0  0  0  0  0  0  0
   34.3749   33.7921   20.9847 O   0  0  0  0  0  0  0  0  0  0  0  0
   34.1675   35.6214   22.3249 N   0  0  0  0  0  0  0  0  0  0  0  0
   33.6286   34.8062   23.4313 C   0  0  0  0  0  0  0  0  0  0  0  0
   34.7419   34.3521   24.3891 C   0  0  0  0  0  0  0  0  0  0  0  0
   34.2659   37.0433   22.5147 C   0  0  0  0  0  0  0  0  0  0  0  0
   34.7898   37.8306   21.4685 C   0  0  0  0  0  0  0  0  0  0  0  0
   33.8822   37.6436   23.6612 N   0  0  0  0  0  0  0  0  0  0  0  0
   34.0049   38.9651   23.7629 C   0  0  0  0  0  0  0  0  0  0  0  0
   34.4593   39.7933   22.8251 N   0  0  0  0  0  0  0  0  0  0  0  0
   34.8540   39.2236   21.6677 C   0  0  0  0  0  0  0  0  0  0  0  0
   33.6243   39.5490   24.9532 N   0  0  0  0  0  0  0  0  0  0  0  0
   33.0491   38.8523   26.0985 C   0  0  0  0  0  0  0  0  0  0  0  0
   33.2536   39.6651   27.3849 C   0  0  0  0  0  0  0  0  0  0  0  0
   32.6004   38.9489   28.5756 C   0  0  0  0  0  0  0  0  0  0  0  0
   31.2157   38.7489   28.3186 O   0  0  0  0  0  0  0  0  0  0  0  0
   30.9652   37.9239   27.1864 C   0  0  0  0  0  0  0  0  0  0  0  0
   31.5446   38.5786   25.9195 C   0  0  0  0  0  0  0  0  0  0  0  0
   35.3522   34.7494   14.5569 H   0  0  0  0  0  0  0  0  0  0  0  0
   32.9844   35.2849   18.8469 H   0  0  0  0  0  0  0  0  0  0  0  0
   31.7407   35.1522   16.7606 H   0  0  0  0  0  0  0  0  0  0  0  0
   35.7294   37.7619   19.4973 H   0  0  0  0  0  0  0  0  0  0  0  0
   32.8729   35.3612   23.9875 H   0  0  0  0  0  0  0  0  0  0  0  0
   33.0876   33.9329   23.0629 H   0  0  0  0  0  0  0  0  0  0  0  0
   34.3285   33.7654   25.2108 H   0  0  0  0  0  0  0  0  0  0  0  0
   35.4783   33.7281   23.8812 H   0  0  0  0  0  0  0  0  0  0  0  0
   35.2660   35.2030   24.8251 H   0  0  0  0  0  0  0  0  0  0  0  0
   35.2402   39.8826   20.9059 H   0  0  0  0  0  0  0  0  0  0  0  0
   33.7510   40.5504   25.0409 H   0  0  0  0  0  0  0  0  0  0  0  0
   33.5700   37.9011   26.2188 H   0  0  0  0  0  0  0  0  0  0  0  0
   34.3164   39.8123   27.5750 H   0  0  0  0  0  0  0  0  0  0  0  0
   32.8112   40.6586   27.2830 H   0  0  0  0  0  0  0  0  0  0  0  0
   33.0859   37.9912   28.7690 H   0  0  0  0  0  0  0  0  0  0  0  0
   32.7036   39.5507   29.4789 H   0  0  0  0  0  0  0  0  0  0  0  0
   31.3896   36.9315   27.3453 H   0  0  0  0  0  0  0  0  0  0  0  0
   29.8879   37.7933   27.0894 H   0  0  0  0  0  0  0  0  0  0  0  0
   31.0155   39.5135   25.7292 H   0  0  0  0  0  0  0  0  0  0  0  0
   31.3697   37.9346   25.0569 H   0  0  0  0  0  0  0  0  0  0  0  0
  1  2  1  0
  2  8  2  0
  2  3  1  0
  3  4  2  0
  3 30  1  0
  4  5  1  0
  4  6  1  0
  6  7  2  0
  6  9  1  0
  7  8  1  0
  7 31  1  0
  8 32  1  0
  9 10  1  0
 10 11  2  0
 10 12  1  0
 11 18  1  0
 11 33  1  0
 12 13  2  0
 12 14  1  0
 14 15  1  0
 14 17  1  0
 15 16  1  0
 15 34  1  0
 15 35  1  0
 16 36  1  0
 16 37  1  0
 16 38  1  0
 17 18  2  0
 17 19  1  0
 18 22  1  0
 19 20  2  0
 20 21  1  0
 20 23  1  0
 21 22  2  0
 22 39  1  0
 23 24  1  0
 23 40  1  0
 24 29  1  0
 24 25  1  0
 24 41  1  0
 25 26  1  0
 25 42  1  0
 25 43  1  0
 26 27  1  0
 26 44  1  0
 26 45  1  0
 27 28  1  0
 28 29  1  0
 28 46  1  0
 28 47  1  0
 29 48  1  0
 29 49  1  0
M  END
>  <s_m_entry_id>  (1) 
272

>  <i_f3d_flags>  (1) 
0

>  <r_lp_tautomer_probability>  (1) 
1

>  <r_epik_Ionization_Penalty>  (1) 
  0.0000

>  <r_epik_State_Penalty>  (1) 
  0.0000

>  <i_epik_Tot_Q>  (1) 
0

>  <s_m_job_name>  (1) 
glide-dock_SP_p38_core_cons_top_1

>  <r_i_docking_score>  (1) 
-6.53416167648878

>  <r_i_glide_gscore>  (1) 
-6.53416167648878

>  <r_i_glide_emodel>  (1) 
-47.0861744283561

>  <index_string>  (1) 
0:0:0

$$$$
