6:0:0
     RDKit          3D

 53 56  0  0  1  0  0  0  0  0999 V2000
   34.3022   35.0540   21.0655 C   0  0  0  0  0  0  0  0  0  0  0  0
   34.0290   38.9905   23.7439 C   0  0  0  0  0  0  0  0  0  0  0  0
   34.7094   37.8689   21.3999 C   0  0  0  0  0  0  0  0  0  0  0  0
   35.1117   37.1944   20.1695 C   0  0  0  0  0  0  0  0  0  0  0  0
   34.1156   37.1022   22.4212 C   0  0  0  0  0  0  0  0  0  0  0  0
   34.8965   39.2436   21.6522 C   0  0  0  0  0  0  0  0  0  0  0  0
   34.9391   35.8600   20.0249 C   0  0  0  0  0  0  0  0  0  0  0  0
   34.5517   39.8071   22.8312 N   0  0  0  0  0  0  0  0  0  0  0  0
   34.1526   33.8392   20.9225 O   0  0  0  0  0  0  0  0  0  0  0  0
   33.8949   35.7046   22.1915 N   0  0  0  0  0  0  0  0  0  0  0  0
   33.7888   37.6925   23.5901 N   0  0  0  0  0  0  0  0  0  0  0  0
   33.7493   39.5496   24.9733 N   0  0  0  0  0  0  0  0  0  0  0  0
   35.5510   37.8017   19.3919 H   0  0  0  0  0  0  0  0  0  0  0  0
   35.3444   39.8916   20.9149 H   0  0  0  0  0  0  0  0  0  0  0  0
   33.9344   40.5398   25.0888 H   0  0  0  0  0  0  0  0  0  0  0  0
   33.2266   34.9308   23.2497 C   0  0  0  0  0  0  0  0  0  0  0  0
   32.5149   35.5587   23.7871 H   0  0  0  0  0  0  0  0  0  0  0  0
   32.6045   34.1365   22.8324 H   0  0  0  0  0  0  0  0  0  0  0  0
   34.2458   34.3326   24.2295 C   0  0  0  0  0  0  0  0  0  0  0  0
   34.8164   33.5488   23.7321 H   0  0  0  0  0  0  0  0  0  0  0  0
   34.9662   35.0937   24.5334 H   0  0  0  0  0  0  0  0  0  0  0  0
   33.5432   33.7933   25.4790 C   0  0  0  0  0  0  0  0  0  0  0  0
   33.0739   34.6013   26.0415 H   0  0  0  0  0  0  0  0  0  0  0  0
   32.7632   33.0799   25.2102 H   0  0  0  0  0  0  0  0  0  0  0  0
   34.4907   33.1493   26.2892 O   0  0  0  0  0  0  0  0  0  0  0  0
   34.7930   32.3959   25.7950 H   0  0  0  0  0  0  0  0  0  0  0  0
   33.3322   38.5398   28.6240 C   0  0  0  0  0  0  0  0  0  0  0  0
   33.9572   39.2420   27.4087 C   0  0  0  0  0  0  0  0  0  0  0  0
   33.2114   38.8432   26.1296 C   0  0  0  0  0  0  0  0  0  0  0  0
   31.7141   39.1293   26.3103 C   0  0  0  0  0  0  0  0  0  0  0  0
   31.1938   38.4509   27.5881 C   0  0  0  0  0  0  0  0  0  0  0  0
   31.9526   38.8788   28.7148 O   0  0  0  0  0  0  0  0  0  0  0  0
   33.4499   37.4573   28.5537 H   0  0  0  0  0  0  0  0  0  0  0  0
   33.8338   38.8563   29.5387 H   0  0  0  0  0  0  0  0  0  0  0  0
   35.0127   38.9794   27.3292 H   0  0  0  0  0  0  0  0  0  0  0  0
   33.9101   40.3229   27.5511 H   0  0  0  0  0  0  0  0  0  0  0  0
   33.3416   37.7679   26.0022 H   0  0  0  0  0  0  0  0  0  0  0  0
   31.5455   40.2052   26.3771 H   0  0  0  0  0  0  0  0  0  0  0  0
   31.1501   38.7764   25.4461 H   0  0  0  0  0  0  0  0  0  0  0  0
   31.2345   37.3642   27.4981 H   0  0  0  0  0  0  0  0  0  0  0  0
   30.1519   38.7189   27.7533 H   0  0  0  0  0  0  0  0  0  0  0  0
   35.2780   35.1627   18.8930 O   0  0  0  0  0  0  0  0  0  0  0  0
   37.8280   36.6213   15.9303 C   0  0  0  0  0  0  0  0  0  0  0  0
   36.4884   36.3392   15.6559 C   0  0  0  0  0  0  0  0  0  0  0  0
   35.6873   35.7782   16.6519 C   0  0  0  0  0  0  0  0  0  0  0  0
   36.1502   35.6644   17.9674 C   0  0  0  0  0  0  0  0  0  0  0  0
   37.5027   35.9502   18.2541 C   0  0  0  0  0  0  0  0  0  0  0  0
   38.3632   36.3493   17.2099 C   0  0  0  0  0  0  0  0  0  0  0  0
   38.5592   37.2142   14.9713 F   0  0  0  0  0  0  0  0  0  0  0  0
   36.0723   36.5644   14.6892 H   0  0  0  0  0  0  0  0  0  0  0  0
   34.6581   35.5360   16.4292 H   0  0  0  0  0  0  0  0  0  0  0  0
   37.9612   35.8721   19.5248 F   0  0  0  0  0  0  0  0  0  0  0  0
   39.3947   36.5859   17.4253 H   0  0  0  0  0  0  0  0  0  0  0  0
  1  7  1  0
  1  9  2  0
  1 10  1  0
  2  8  1  0
  2 11  2  0
  2 12  1  0
  3  4  1  0
  3  5  2  0
  3  6  1  0
  4  7  2  0
  4 13  1  0
  5 10  1  0
  5 11  1  0
  6  8  2  0
  6 14  1  0
  7 42  1  0
 10 16  1  0
 12 15  1  0
 12 29  1  0
 16 17  1  0
 16 18  1  0
 16 19  1  0
 19 20  1  0
 19 21  1  0
 19 22  1  0
 22 23  1  0
 22 24  1  0
 22 25  1  0
 25 26  1  0
 27 28  1  0
 27 32  1  0
 27 33  1  0
 27 34  1  0
 28 29  1  0
 28 35  1  0
 28 36  1  0
 29 30  1  0
 29 37  1  0
 30 31  1  0
 30 38  1  0
 30 39  1  0
 31 32  1  0
 31 40  1  0
 31 41  1  0
 42 46  1  0
 43 44  2  0
 43 48  1  0
 43 49  1  0
 44 45  1  0
 44 50  1  0
 45 46  2  0
 45 51  1  0
 46 47  1  0
 47 48  2  0
 47 52  1  0
 48 53  1  0
M  END
>  <s_m_entry_id>  (1) 
824

>  <s_m_Source_Path>  (1) 
/projects/mai/users/kmzp800_harry/pmx_colab/docking_jobs/p38/glide-dock_SP_p38_mcs_docking_2

>  <s_m_Source_File>  (1) 
glide-dock_SP_p38_mcs_docking_2_pv.maegz

>  <i_m_Source_File_Index>  (1) 
8

>  <s_pdb_PDB_TITLE>  (1) 
MX MODEL

>  <r_i_docking_score>  (1) 
-7.41895129984606

>  <r_i_glide_gscore>  (1) 
-7.41895129984606

>  <r_i_glide_emodel>  (1) 
-37.4314354454508

>  <index_string>  (1) 
6:0:0

$$$$
