5:0:0
     RDKit          3D

 48 51  0  0  1  0  0  0  0  0999 V2000
    5.5720   -0.5830   16.2360 C   0  0  0  0  0  0  0  0  0  0  0  0
    4.3100   -1.0780   16.1750 N   0  0  0  0  0  0  0  0  0  0  0  0
    3.7330   -0.3510   15.2020 C   0  0  0  0  0  0  0  0  0  0  0  0
    2.4240   -0.4650   14.7420 C   0  0  0  0  0  0  0  0  0  0  0  0
    1.5320   -1.4340   15.3110 N   0  0  0  0  0  0  0  0  0  0  0  0
    2.0310    0.3760   13.7390 N   0  0  0  0  0  0  0  0  0  0  0  0
    2.8760    1.3040   13.1890 C   0  0  0  0  0  0  0  0  0  0  0  0
    4.1950    1.3970   13.6740 C   0  0  0  0  0  0  0  0  0  0  0  0
    4.5580    0.5520   14.6680 N   0  0  0  0  0  0  0  0  0  0  0  0
    5.7330    0.4340   15.2990 C   0  0  0  0  0  0  0  0  0  0  0  0
    2.3980    2.1880   12.1050 C   0  0  0  0  0  0  0  0  0  0  0  0
    1.0470    2.5510   12.0390 C   0  0  0  0  0  0  0  0  0  0  0  0
    0.5890    3.3860   11.0180 C   0  0  0  0  0  0  0  0  0  0  0  0
    1.4670    3.8770   10.0400 C   0  0  0  0  0  0  0  0  0  0  0  0
    2.8280    3.5110   10.1060 C   0  0  0  0  0  0  0  0  0  0  0  0
    3.7250    3.9530    9.1910 F   0  0  0  0  0  0  0  0  0  0  0  0
    3.2810    2.6760   11.1310 C   0  0  0  0  0  0  0  0  0  0  0  0
    0.9330    4.7590    8.9770 C   0  0  0  0  0  0  0  0  0  0  0  0
    1.4540    5.8880    8.7740 O   0  0  0  0  0  0  0  0  0  0  0  0
   -0.1680    4.3550    8.1690 N   0  0  0  0  0  0  0  0  0  0  0  0
    0.1650   -1.6710   14.9480 C   0  0  0  0  0  0  0  0  0  0  0  0
   -0.4740   -2.8910   15.2080 C   0  0  0  0  0  0  0  0  0  0  0  0
   -1.8060   -3.0830   14.8380 C   0  0  0  0  0  0  0  0  0  0  0  0
   -2.5230   -2.0570   14.2030 C   0  0  0  0  0  0  0  0  0  0  0  0
   -1.8900   -0.8320   13.9400 C   0  0  0  0  0  0  0  0  0  0  0  0
   -0.5490   -0.6490   14.3160 C   0  0  0  0  0  0  0  0  0  0  0  0
   -3.8590   -2.2310   13.8250 O   0  0  0  0  0  0  0  0  0  0  0  0
   -4.2660   -3.1920   12.8610 C   0  0  0  0  0  0  0  0  0  0  0  0
   -2.6100    0.1880   13.3070 O   0  0  0  0  0  0  0  0  0  0  0  0
   -2.0790    0.9550   12.2360 C   0  0  0  0  0  0  0  0  0  0  0  0
    6.3539   -0.9342   16.9254 H   0  0  0  0  0  0  0  0  0  0  0  0
    1.9156   -2.0243   16.0628 H   0  0  0  0  0  0  0  0  0  0  0  0
    4.9043    2.1291   13.2606 H   0  0  0  0  0  0  0  0  0  0  0  0
    6.6435    1.0229   15.1140 H   0  0  0  0  0  0  0  0  0  0  0  0
    0.3425    2.1760   12.7960 H   0  0  0  0  0  0  0  0  0  0  0  0
   -0.4749    3.6627   10.9799 H   0  0  0  0  0  0  0  0  0  0  0  0
    4.3444    2.3979   11.1743 H   0  0  0  0  0  0  0  0  0  0  0  0
   -0.5254    4.9824    7.4345 H   0  0  0  0  0  0  0  0  0  0  0  0
   -0.6069    3.4354    8.3192 H   0  0  0  0  0  0  0  0  0  0  0  0
    0.0774   -3.7018   15.7065 H   0  0  0  0  0  0  0  0  0  0  0  0
   -2.2973   -4.0451   15.0455 H   0  0  0  0  0  0  0  0  0  0  0  0
   -0.0541    0.3116   14.1103 H   0  0  0  0  0  0  0  0  0  0  0  0
   -4.6455   -4.0880   13.3740 H   0  0  0  0  0  0  0  0  0  0  0  0
   -5.0609   -2.7658   12.2313 H   0  0  0  0  0  0  0  0  0  0  0  0
   -3.4068   -3.4663   12.2313 H   0  0  0  0  0  0  0  0  0  0  0  0
   -1.4968    1.7960   12.6407 H   0  0  0  0  0  0  0  0  0  0  0  0
   -1.4260    0.3203   11.6189 H   0  0  0  0  0  0  0  0  0  0  0  0
   -2.9029    1.3428   11.6189 H   0  0  0  0  0  0  0  0  0  0  0  0
  1  2  1  0
  1 10  2  0
  2  3  2  0
  3  4  1  0
  3  9  1  0
  4  5  1  0
  4  6  2  0
  5 21  1  0
  6  7  1  0
  7  8  2  0
  7 11  1  0
  8  9  1  0
  9 10  1  0
 11 12  2  0
 11 17  1  0
 12 13  1  0
 13 14  2  0
 14 15  1  0
 14 18  1  0
 15 17  2  0
 15 16  1  0
 18 19  2  0
 18 20  1  0
 21 22  2  0
 21 26  1  0
 22 23  1  0
 23 24  2  0
 24 25  1  0
 24 27  1  0
 25 26  2  0
 25 29  1  0
 27 28  1  0
 29 30  1  0
  1 31  1  0
  5 32  1  0
  8 33  1  0
 10 34  1  0
 12 35  1  0
 13 36  1  0
 17 37  1  0
 20 38  1  0
 20 39  1  0
 22 40  1  0
 23 41  1  0
 26 42  1  0
 28 43  1  0
 28 44  1  0
 28 45  1  0
 30 46  1  0
 30 47  1  0
 30 48  1  0
M  END
>  <s_m_entry_id>  (1) 
331

>  <MODEL>  (1) 
1

>  <REMARK>  (1) 
 VINA RESULT:    -9.319      0.000      0.000
 INTER + INTRA:         -12.309
 INTER:                 -11.980
 INTRA:                  -0.329
 UNBOUND:                -0.266
  Name = /scratch/kmzp800/tmpg2xlt3gk/tmpeb6i3nxa.pdb
  7 active torsions:
  status: ('A' for Active; 'I' for Inactive)
    1  A    between atoms: N2_5  and  C4_6
    2  A    between atoms: C7_9  and  O1_10
    3  A    between atoms: O1_10  and  C8_11
    4  A    between atoms: C9_12  and  O2_13
    5  A    between atoms: O2_13  and  C10_14
    6  A    between atoms: C12_17  and  C13_18
    7  A    between atoms: C16_21  and  C17_22
                            x       y       z     vdW  Elec       q    Type
                         _______ _______ _______ _____ _____    ______ ____

>  <TORSDO>  (1) 
F 5

>  <grid_id>  (1) 
syk-prepared

>  <grid_path>  (1) 
syk_vina.pdbqt

>  <grid_filename>  (1) 
syk_vina.pdbqt

>  <docking_score>  (1) 
-9.319

>  <compound_name>  (1) 
CHEMBL3265012

>  <index_string>  (1) 
5:0:0

>  <s_m_Source_Path>  (1) 
/projects/mai/users/kmzp800_harry/pmx_colab/docking_jobs/syk/vina_prep/output

>  <s_m_Source_File>  (1) 
ptp1b_docked_conformers.sdf

>  <i_m_Source_File_Index>  (1) 
155

$$$$
