17:0:0
     RDKit          3D

 65 70  0  0  1  0  0  0  0  0999 V2000
   -1.4240   -0.7390   13.7640 C   0  0  0  0  0  0  0  0  0  0  0  0
   -1.7600   -1.9310   14.4190 C   0  0  0  0  0  0  0  0  0  0  0  0
   -0.7950   -2.6330   15.1450 C   0  0  0  0  0  0  0  0  0  0  0  0
    0.5130   -2.1480   15.2200 C   0  0  0  0  0  0  0  0  0  0  0  0
    0.8680   -0.9560   14.5680 C   0  0  0  0  0  0  0  0  0  0  0  0
   -0.1100   -0.2610   13.8430 C   0  0  0  0  0  0  0  0  0  0  0  0
    2.2450   -0.4300   14.6350 C   0  0  0  0  0  0  0  0  0  0  0  0
    2.6400    0.5630   13.7750 N   0  0  0  0  0  0  0  0  0  0  0  0
    3.9010    1.0860   13.7960 C   0  0  0  0  0  0  0  0  0  0  0  0
    4.3010    2.1260   12.8920 N   0  0  0  0  0  0  0  0  0  0  0  0
    4.7930    0.5840   14.7390 C   0  0  0  0  0  0  0  0  0  0  0  0
    6.0680    0.9660   14.9250 N   0  0  0  0  0  0  0  0  0  0  0  0
    6.4920    0.1770   15.9450 C   0  0  0  0  0  0  0  0  0  0  0  0
    5.4640   -0.6670   16.3570 C   0  0  0  0  0  0  0  0  0  0  0  0
    4.4120   -0.3830   15.5770 N   0  0  0  0  0  0  0  0  0  0  0  0
    3.1710   -0.9260   15.5750 C   0  0  0  0  0  0  0  0  0  0  0  0
    3.5470    2.6470   11.7890 C   0  0  0  0  0  0  0  0  0  0  0  0
    4.1310    2.8980   10.5400 C   0  0  0  0  0  0  0  0  0  0  0  0
    3.3680    3.4290    9.4980 C   0  0  0  0  0  0  0  0  0  0  0  0
    2.0080    3.7200    9.6910 C   0  0  0  0  0  0  0  0  0  0  0  0
    1.4160    3.4700   10.9380 C   0  0  0  0  0  0  0  0  0  0  0  0
    2.1930    2.9360   11.9790 C   0  0  0  0  0  0  0  0  0  0  0  0
    1.2290    4.2620    8.6620 O   0  0  0  0  0  0  0  0  0  0  0  0
    0.2180    3.5230    7.9900 C   0  0  0  0  0  0  0  0  0  0  0  0
    0.0600    3.7590   11.1210 O   0  0  0  0  0  0  0  0  0  0  0  0
   -0.4320    5.0850   11.2600 C   0  0  0  0  0  0  0  0  0  0  0  0
   -2.1730    1.3700   12.6180 N   0  0  0  0  0  0  0  0  0  0  0  0
   -2.4400    0.0140   13.0060 C   0  0  0  0  0  0  0  0  0  0  0  0
   -3.5380   -0.5350   12.7140 O   0  0  0  0  0  0  0  0  0  0  0  0
   -4.7390    4.0000   10.4880 C   0  0  0  0  0  0  0  0  0  0  0  0
   -4.1900    2.8850    9.8380 C   0  0  0  0  0  0  0  0  0  0  0  0
   -3.3450    2.0120   10.5280 C   0  0  0  0  0  0  0  0  0  0  0  0
   -3.0370    2.2410   11.8770 C   0  0  0  0  0  0  0  0  0  0  0  0
   -3.5840    3.3520   12.5240 C   0  0  0  0  0  0  0  0  0  0  0  0
   -4.4310    4.2270   11.8350 C   0  0  0  0  0  0  0  0  0  0  0  0
   -6.8730    6.6130    9.1980 C   0  0  0  0  0  0  0  0  0  0  0  0
   -6.8750    5.7130    8.1950 N   0  0  0  0  0  0  0  0  0  0  0  0
   -6.1200    4.6850    8.5380 N   0  0  0  0  0  0  0  0  0  0  0  0
   -5.6300    4.9250    9.7660 C   0  0  0  0  0  0  0  0  0  0  0  0
   -6.0810    6.1450   10.2330 C   0  0  0  0  0  0  0  0  0  0  0  0
   -2.7888   -2.3160   14.3613 H   0  0  0  0  0  0  0  0  0  0  0  0
   -1.0650   -3.5679   15.6578 H   0  0  0  0  0  0  0  0  0  0  0  0
    1.2697   -2.7034   15.7935 H   0  0  0  0  0  0  0  0  0  0  0  0
    0.1586    0.6735   13.3286 H   0  0  0  0  0  0  0  0  0  0  0  0
    5.2290    2.5430   13.0525 H   0  0  0  0  0  0  0  0  0  0  0  0
    7.5010    0.2009   16.3825 H   0  0  0  0  0  0  0  0  0  0  0  0
    5.5068   -1.4163   17.1612 H   0  0  0  0  0  0  0  0  0  0  0  0
    2.8962   -1.7240   16.2804 H   0  0  0  0  0  0  0  0  0  0  0  0
    5.1963    2.6755   10.3796 H   0  0  0  0  0  0  0  0  0  0  0  0
    3.8350    3.6204    8.5206 H   0  0  0  0  0  0  0  0  0  0  0  0
    1.7293    2.7425   12.9575 H   0  0  0  0  0  0  0  0  0  0  0  0
   -0.4387    3.0430    8.7305 H   0  0  0  0  0  0  0  0  0  0  0  0
   -0.3749    4.2021    7.3597 H   0  0  0  0  0  0  0  0  0  0  0  0
    0.6851    2.7519    7.3597 H   0  0  0  0  0  0  0  0  0  0  0  0
   -0.5237    5.3320   12.3280 H   0  0  0  0  0  0  0  0  0  0  0  0
    0.2655    5.7871   10.7798 H   0  0  0  0  0  0  0  0  0  0  0  0
   -1.4186    5.1622   10.7798 H   0  0  0  0  0  0  0  0  0  0  0  0
   -1.2627    1.7588   12.9027 H   0  0  0  0  0  0  0  0  0  0  0  0
   -4.4257    2.6969    8.7801 H   0  0  0  0  0  0  0  0  0  0  0  0
   -2.9188    1.1401   10.0102 H   0  0  0  0  0  0  0  0  0  0  0  0
   -3.3473    3.5400   13.5817 H   0  0  0  0  0  0  0  0  0  0  0  0
   -4.8573    5.0980   12.3543 H   0  0  0  0  0  0  0  0  0  0  0  0
   -7.4157    7.5698    9.1950 H   0  0  0  0  0  0  0  0  0  0  0  0
   -5.9389    3.8479    7.9658 H   0  0  0  0  0  0  0  0  0  0  0  0
   -5.8629    6.6287   11.1966 H   0  0  0  0  0  0  0  0  0  0  0  0
  1  6  1  0
  1  2  2  0
  1 28  1  0
  2  3  1  0
  3  4  2  0
  4  5  1  0
  5  7  1  0
  5  6  2  0
  7 16  2  0
  7  8  1  0
  8  9  2  0
  9 11  1  0
  9 10  1  0
 10 17  1  0
 11 12  2  0
 11 15  1  0
 12 13  1  0
 13 14  2  0
 14 15  1  0
 15 16  1  0
 17 22  1  0
 17 18  2  0
 18 19  1  0
 19 20  2  0
 20 21  1  0
 20 23  1  0
 21 25  1  0
 21 22  2  0
 23 24  1  0
 25 26  1  0
 27 28  1  0
 27 33  1  0
 28 29  2  0
 30 35  1  0
 30 31  2  0
 30 39  1  0
 31 32  1  0
 32 33  2  0
 33 34  1  0
 34 35  2  0
 36 40  1  0
 36 37  2  0
 37 38  1  0
 38 39  1  0
 39 40  2  0
  2 41  1  0
  3 42  1  0
  4 43  1  0
  6 44  1  0
 10 45  1  0
 13 46  1  0
 14 47  1  0
 16 48  1  0
 18 49  1  0
 19 50  1  0
 22 51  1  0
 24 52  1  0
 24 53  1  0
 24 54  1  0
 26 55  1  0
 26 56  1  0
 26 57  1  0
 27 58  1  0
 31 59  1  0
 32 60  1  0
 34 61  1  0
 35 62  1  0
 36 63  1  0
 38 64  1  0
 40 65  1  0
M  END
>  <s_m_entry_id>  (1) 
650

>  <MODEL>  (1) 
3

>  <REMARK>  (1) 
 VINA RESULT:    -8.536      3.455      7.839
 INTER + INTRA:         -12.830
 INTER:                 -11.575
 INTRA:                  -1.255
 UNBOUND:                -0.801
  Name = /scratch/kmzp800/tmpv8oabis6/tmptp31v8bl.pdb
  9 active torsions:
  status: ('A' for Active; 'I' for Inactive)
    1  A    between atoms: C2_4  and  C3_5
    2  A    between atoms: C6_8  and  N3_9
    3  A    between atoms: C7_10  and  C8_12
    4  A    between atoms: C12_16  and  C13_17
    5  A    between atoms: N5_20  and  C15_21
    6  A    between atoms: C18_24  and  O2_25
    7  A    between atoms: O2_25  and  C19_26
    8  A    between atoms: C20_27  and  O3_28
    9  A    between atoms: O3_28  and  C21_29
                            x       y       z     vdW  Elec       q    Type
                         _______ _______ _______ _____ _____    ______ ____

>  <TORSDO>  (1) 
F 7

>  <grid_id>  (1) 
syk-prepared

>  <grid_path>  (1) 
syk_vina.pdbqt

>  <grid_filename>  (1) 
syk_vina.pdbqt

>  <docking_score>  (1) 
-8.536

>  <compound_name>  (1) 
CHEMBL3265003

>  <index_string>  (1) 
17:0:0

>  <s_m_Source_Path>  (1) 
/projects/mai/users/kmzp800_harry/pmx_colab/docking_jobs/syk/vina_prep/output

>  <s_m_Source_File>  (1) 
ptp1b_docked_conformers.sdf

>  <i_m_Source_File_Index>  (1) 
474

$$$$
