20:0:0
     RDKit          3D

 42 43  0  0  1  0  0  0  0  0999 V2000
   39.1954   17.5377   12.6841 O   0  0  0  0  0  0  0  0  0  0  0  0
   40.3596   17.0701   12.6864 C   0  0  0  0  0  0  0  0  0  0  0  0
   41.2258   17.3094   11.8134 O   0  0  0  0  0  0  0  0  0  0  0  0
   40.7406   16.1326   13.8353 C   0  0  0  0  0  0  0  0  0  0  0  0
   42.1052   15.7366   13.7382 O   0  0  0  0  0  0  0  0  0  0  0  0
   42.5165   14.9336   14.7441 C   0  0  0  0  0  0  0  0  0  0  0  0
   42.1650   13.5618   14.8724 C   0  0  0  0  0  0  0  0  0  0  0  0
   41.1781   12.6864   13.5303 Br  0  0  0  0  0  0  0  0  0  0  0  0
   42.6096   12.9399   16.0029 C   0  0  0  0  0  0  0  0  0  0  0  0
   42.3334   11.5893   16.4727 C   0  0  0  0  0  0  0  0  0  0  0  0
   41.0133   11.0947   16.4400 C   0  0  0  0  0  0  0  0  0  0  0  0
   40.7286    9.7820   16.8397 C   0  0  0  0  0  0  0  0  0  0  0  0
   41.7619    8.9608   17.3043 C   0  0  0  0  0  0  0  0  0  0  0  0
   43.0817    9.4462   17.3653 C   0  0  0  0  0  0  0  0  0  0  0  0
   44.1160    8.5866   17.8106 N   0  0  0  0  0  0  0  0  0  0  0  0
   44.1813    7.9523   18.9949 C   0  0  0  0  0  0  0  0  0  0  0  0
   45.0808    7.1608   19.2800 O   0  0  0  0  0  0  0  0  0  0  0  0
   43.1832    8.2808   19.8245 N   0  0  0  0  0  0  0  0  0  0  0  0
   43.3687   10.7580   16.9372 C   0  0  0  0  0  0  0  0  0  0  0  0
   43.6270   14.0181   16.9126 S   0  0  0  0  0  0  0  0  0  0  0  0
   43.3540   15.3174   15.7608 C   0  0  0  0  0  0  0  0  0  0  0  0
   44.0175   16.5992   16.0385 C   0  0  0  0  0  0  0  0  0  0  0  0
   43.8504   17.5546   15.2515 O   0  0  0  0  0  0  0  0  0  0  0  0
   44.7435   16.6859   17.0507 O   0  0  0  0  0  0  0  0  0  0  0  0
   40.5283   16.6121   14.7936 H   0  0  0  0  0  0  0  0  0  0  0  0
   40.1155   15.2476   13.7803 H   0  0  0  0  0  0  0  0  0  0  0  0
   40.2080   11.7178   16.0936 H   0  0  0  0  0  0  0  0  0  0  0  0
   39.7162    9.4131   16.7801 H   0  0  0  0  0  0  0  0  0  0  0  0
   41.5448    7.9531   17.6247 H   0  0  0  0  0  0  0  0  0  0  0  0
   44.8585    8.4135   17.1579 H   0  0  0  0  0  0  0  0  0  0  0  0
   44.3764   11.1352   16.9572 H   0  0  0  0  0  0  0  0  0  0  0  0
   42.9581    7.7372   21.1504 C   0  0  0  0  0  0  0  0  0  0  0  0
   42.5030    8.9463   19.4785 H   0  0  0  0  0  0  0  0  0  0  0  0
   43.6818    8.5938   22.1991 C   0  0  0  0  0  0  0  0  0  0  0  0
   41.4496    7.6596   21.4209 C   0  0  0  0  0  0  0  0  0  0  0  0
   43.3572    6.7217   21.1904 H   0  0  0  0  0  0  0  0  0  0  0  0
   43.5278    8.1949   23.2015 H   0  0  0  0  0  0  0  0  0  0  0  0
   44.7564    8.6150   22.0155 H   0  0  0  0  0  0  0  0  0  0  0  0
   43.3215    9.6233   22.1903 H   0  0  0  0  0  0  0  0  0  0  0  0
   41.2516    7.2303   22.4030 H   0  0  0  0  0  0  0  0  0  0  0  0
   40.9843    8.6458   21.3887 H   0  0  0  0  0  0  0  0  0  0  0  0
   40.9508    7.0300   20.6822 H   0  0  0  0  0  0  0  0  0  0  0  0
  1  2  2  0
  2  3  1  0
  2  4  1  0
  4  5  1  0
  4 25  1  0
  4 26  1  0
  5  6  1  0
  6  7  1  0
  6 21  2  0
  7  8  1  0
  7  9  2  0
  9 10  1  0
  9 20  1  0
 10 11  2  0
 10 19  1  0
 11 12  1  0
 11 27  1  0
 12 13  2  0
 12 28  1  0
 13 14  1  0
 13 29  1  0
 14 15  1  0
 14 19  2  0
 15 16  1  0
 15 30  1  0
 16 17  2  0
 16 18  1  0
 18 32  1  0
 18 33  1  0
 19 31  1  0
 20 21  1  0
 21 22  1  0
 22 23  2  0
 22 24  1  0
 32 34  1  0
 32 35  1  0
 32 36  1  0
 34 37  1  0
 34 38  1  0
 34 39  1  0
 35 40  1  0
 35 41  1  0
 35 42  1  0
M  CHG  2   3  -1  24  -1
M  END
>  <s_m_entry_id>  (1) 
537

>  <s_m_Source_Path>  (1) 
/projects/mai/users/kmzp800_harry/pmx_colab/docking_jobs/ptp1b/glide-dock_SP_ptp1b_mcs_2

>  <s_m_Source_File>  (1) 
glide-dock_SP_ptp1b_mcs_2_pv.maegz

>  <i_m_Source_File_Index>  (1) 
22

>  <r_i_docking_score>  (1) 
-5.61027275053706

>  <r_i_glide_gscore>  (1) 
-5.61027275053706

>  <r_i_glide_emodel>  (1) 
-73.5375012401739

>  <index_string>  (1) 
20:0:0

$$$$
