8:0:0
     RDKit          3D

 45 48  0  0  1  0  0  0  0  0999 V2000
  -14.4382  -14.8308  -27.6830 C   0  0  0  0  0  0  0  0  0  0  0  0
  -15.0240  -15.6330  -26.6915 C   0  0  0  0  0  0  0  0  0  0  0  0
  -14.5177  -13.4360  -27.5921 C   0  0  0  0  0  0  0  0  0  0  0  0
  -15.7437  -15.0334  -25.6318 C   0  0  0  0  0  0  0  0  0  0  0  0
  -14.8498  -17.0190  -26.7545 N   0  0  0  0  0  0  0  0  0  0  0  0
  -15.2313  -12.8426  -26.5424 C   0  0  0  0  0  0  0  0  0  0  0  0
  -15.8530  -13.6322  -25.5576 C   0  0  0  0  0  0  0  0  0  0  0  0
  -16.3713  -15.9475  -24.6191 C   0  0  0  0  0  0  0  0  0  0  0  0
  -16.1228  -17.2477  -24.8127 N   0  0  0  0  0  0  0  0  0  0  0  0
  -17.0675  -15.5727  -23.6811 O   0  0  0  0  0  0  0  0  0  0  0  0
  -15.3741  -17.7929  -25.8510 C   0  0  0  0  0  0  0  0  0  0  0  0
  -15.2171  -19.2709  -25.9362 C   0  0  0  0  0  0  0  0  0  0  0  0
  -15.4654  -20.1058  -24.8282 C   0  0  0  0  0  0  0  0  0  0  0  0
  -15.2536  -21.4920  -24.9256 C   0  0  0  0  0  0  0  0  0  0  0  0
  -14.7764  -22.0592  -26.1211 C   0  0  0  0  0  0  0  0  0  0  0  0
  -14.5348  -21.2225  -27.2233 C   0  0  0  0  0  0  0  0  0  0  0  0
  -14.7800  -19.8480  -27.1386 C   0  0  0  0  0  0  0  0  0  0  0  0
  -15.3475  -11.4963  -26.5073 F   0  0  0  0  0  0  0  0  0  0  0  0
  -14.5406  -23.4368  -26.2125 N   0  0  0  0  0  0  0  0  0  0  0  0
  -15.6529  -24.3503  -26.4065 C   0  0  0  0  0  0  0  0  0  0  0  0
  -15.4002  -25.2514  -27.6241 C   0  0  0  0  0  0  0  0  0  0  0  0
  -14.0671  -25.8927  -27.5524 N   0  0  0  0  0  0  0  0  0  0  0  0
  -12.9830  -24.8883  -27.4445 C   0  0  0  0  0  0  0  0  0  0  0  0
  -13.1866  -23.9682  -26.2291 C   0  0  0  0  0  0  0  0  0  0  0  0
  -13.8505  -26.8085  -28.6895 C   0  0  0  0  0  0  0  0  0  0  0  0
  -14.0502  -12.8075  -28.3330 H   0  0  0  0  0  0  0  0  0  0  0  0
  -16.4006  -13.1641  -24.7545 H   0  0  0  0  0  0  0  0  0  0  0  0
  -16.5561  -17.8973  -24.1757 H   0  0  0  0  0  0  0  0  0  0  0  0
  -15.8172  -19.7007  -23.8934 H   0  0  0  0  0  0  0  0  0  0  0  0
  -15.4509  -22.1094  -24.0666 H   0  0  0  0  0  0  0  0  0  0  0  0
  -14.1419  -21.5855  -28.1514 H   0  0  0  0  0  0  0  0  0  0  0  0
  -14.5795  -19.2435  -28.0088 H   0  0  0  0  0  0  0  0  0  0  0  0
  -16.5748  -23.7901  -26.5389 H   0  0  0  0  0  0  0  0  0  0  0  0
  -15.7914  -24.9609  -25.5164 H   0  0  0  0  0  0  0  0  0  0  0  0
  -16.1759  -26.0130  -27.6816 H   0  0  0  0  0  0  0  0  0  0  0  0
  -15.4699  -24.6616  -28.5386 H   0  0  0  0  0  0  0  0  0  0  0  0
  -12.0212  -25.3931  -27.3675 H   0  0  0  0  0  0  0  0  0  0  0  0
  -12.9517  -24.2905  -28.3556 H   0  0  0  0  0  0  0  0  0  0  0  0
  -13.0180  -24.5230  -25.3050 H   0  0  0  0  0  0  0  0  0  0  0  0
  -12.4468  -23.1718  -26.2411 H   0  0  0  0  0  0  0  0  0  0  0  0
  -13.9167  -26.2760  -29.6412 H   0  0  0  0  0  0  0  0  0  0  0  0
  -12.8688  -27.2763  -28.6301 H   0  0  0  0  0  0  0  0  0  0  0  0
  -14.5960  -27.6031  -28.6937 H   0  0  0  0  0  0  0  0  0  0  0  0
  -14.0470  -26.4458  -26.7050 H   0  0  0  0  0  0  0  0  0  0  0  0
  -13.8996  -15.2812  -28.5018 H   0  0  0  0  0  0  0  0  0  0  0  0
  1  2  2  0
  1  3  1  0
  1 45  1  0
  2  4  1  0
  2  5  1  0
  3  6  2  0
  3 26  1  0
  4  7  2  0
  4  8  1  0
  5 11  2  0
  6  7  1  0
  6 18  1  0
  7 27  1  0
  8  9  1  0
  8 10  2  0
  9 11  1  0
  9 28  1  0
 11 12  1  0
 12 13  2  0
 12 17  1  0
 13 14  1  0
 13 29  1  0
 14 15  2  0
 14 30  1  0
 15 16  1  0
 15 19  1  0
 16 17  2  0
 16 31  1  0
 17 32  1  0
 19 20  1  0
 19 24  1  0
 20 21  1  0
 20 33  1  0
 20 34  1  0
 21 22  1  0
 21 35  1  0
 21 36  1  0
 22 23  1  0
 22 25  1  0
 22 44  1  0
 23 24  1  0
 23 37  1  0
 23 38  1  0
 24 39  1  0
 24 40  1  0
 25 41  1  0
 25 42  1  0
 25 43  1  0
M  CHG  1  22   1
M  END
>  <s_m_entry_id>  (1) 
505

>  <Name>  (1) 
8a

>  <IC50[nM]>  (1) 
12

>  <s_m_Source_Path>  (1) 
/projects/mai/users/kmzp800_harry/pmx_colab/docking_jobs/tnks2

>  <s_m_Source_File>  (1) 
tnks2_lig.sdf

>  <i_m_Source_File_Index>  (1) 
18

>  <s_m_job_name>  (1) 
glide-dock_SP_tnks_mcs_fallabck

>  <r_i_docking_score>  (1) 
-10.0817135264853

>  <r_i_glide_gscore>  (1) 
-10.0817135264853

>  <r_i_glide_emodel>  (1) 
-40.3159245771767

>  <index_string>  (1) 
8:0:0

$$$$
