5:0:0
     RDKit          3D

 50 52  0  0  1  0  0  0  0  0999 V2000
   42.5000    8.8580   16.9660 C   0  0  0  0  0  0  0  0  0  0  0  0
   42.8920   10.1820   16.7570 C   0  0  0  0  0  0  0  0  0  0  0  0
   41.9360   11.1980   16.6000 C   0  0  0  0  0  0  0  0  0  0  0  0
   40.5790   10.8550   16.6550 C   0  0  0  0  0  0  0  0  0  0  0  0
   40.1750    9.5290   16.8680 C   0  0  0  0  0  0  0  0  0  0  0  0
   41.1420    8.5330   17.0200 C   0  0  0  0  0  0  0  0  0  0  0  0
   42.3770   12.5960   16.3780 C   0  0  0  0  0  0  0  0  0  0  0  0
   43.2990   13.4750   17.4820 S   0  0  0  0  0  0  0  0  0  0  0  0
   43.4100   14.8960   16.5950 C   0  0  0  0  0  0  0  0  0  0  0  0
   42.6950   14.7120   15.4040 C   0  0  0  0  0  0  0  0  0  0  0  0
   42.1390   13.4280   15.2710 C   0  0  0  0  0  0  0  0  0  0  0  0
   41.1100   12.9620   13.7190 Br  0  0  0  0  0  0  0  0  0  0  0  0
   44.2400   16.0420   16.9980 C   0  0  0  0  0  0  0  0  0  0  0  0
   44.9610   16.6220   16.1440 O   0  0  0  0  0  0  0  0  0  0  0  0
   44.1910   16.5400   18.2920 O   0  0  0  0  0  0  0  0  0  0  0  0
   42.4920   15.6880   14.4200 O   0  0  0  0  0  0  0  0  0  0  0  0
   41.6680   16.8320   14.6090 C   0  0  0  0  0  0  0  0  0  0  0  0
   40.8340   17.0740   13.3990 C   0  0  0  0  0  0  0  0  0  0  0  0
   39.5810   16.9900   13.4700 O   0  0  0  0  0  0  0  0  0  0  0  0
   41.4380   17.4340   12.2010 O   0  0  0  0  0  0  0  0  0  0  0  0
   38.7900    9.1780   16.9240 N   0  0  0  0  0  0  0  0  0  0  0  0
   38.0330    8.7150   15.7700 C   0  0  0  0  0  0  0  0  0  0  0  0
   37.1780    7.5170   16.1560 C   0  0  0  0  0  0  0  0  0  0  0  0
   36.4050    7.0190   14.9350 C   0  0  0  0  0  0  0  0  0  0  0  0
   37.2810    6.7010   13.7960 N   0  0  0  0  0  0  0  0  0  0  0  0
   38.2070    7.7930   13.4600 C   0  0  0  0  0  0  0  0  0  0  0  0
   38.9920    8.3000   14.6690 C   0  0  0  0  0  0  0  0  0  0  0  0
   38.1210    5.1920   14.0310 S   0  0  0  0  0  0  0  0  0  0  0  0
   37.2510    4.2620   14.8300 O   0  0  0  0  0  0  0  0  0  0  0  0
   39.3890    5.4480   14.7980 O   0  0  0  0  0  0  0  0  0  0  0  0
   38.5380    4.3990   12.4920 C   0  0  0  0  0  0  0  0  0  0  0  0
   43.2595    8.0717   17.0880 H   0  0  0  0  0  0  0  0  0  0  0  0
   43.9625   10.4317   16.7149 H   0  0  0  0  0  0  0  0  0  0  0  0
   39.8175   11.6388   16.5290 H   0  0  0  0  0  0  0  0  0  0  0  0
   40.8338    7.4897   17.1827 H   0  0  0  0  0  0  0  0  0  0  0  0
   41.0109   16.6667   15.4755 H   0  0  0  0  0  0  0  0  0  0  0  0
   42.3083   17.7092   14.7835 H   0  0  0  0  0  0  0  0  0  0  0  0
   38.3026    9.2569   17.8279 H   0  0  0  0  0  0  0  0  0  0  0  0
   37.3850    9.5309   15.4173 H   0  0  0  0  0  0  0  0  0  0  0  0
   37.8261    6.7115   16.5317 H   0  0  0  0  0  0  0  0  0  0  0  0
   36.4664    7.8156   16.9399 H   0  0  0  0  0  0  0  0  0  0  0  0
   35.8507    6.1114   15.2162 H   0  0  0  0  0  0  0  0  0  0  0  0
   35.7301    7.8277   14.6180 H   0  0  0  0  0  0  0  0  0  0  0  0
   38.9203    7.4288   12.7059 H   0  0  0  0  0  0  0  0  0  0  0  0
   37.6046    8.6322   13.0820 H   0  0  0  0  0  0  0  0  0  0  0  0
   39.6020    9.1656   14.3711 H   0  0  0  0  0  0  0  0  0  0  0  0
   39.6443    7.4960   15.0406 H   0  0  0  0  0  0  0  0  0  0  0  0
   39.0410    3.4424   12.6969 H   0  0  0  0  0  0  0  0  0  0  0  0
   37.6204    4.2143   11.9142 H   0  0  0  0  0  0  0  0  0  0  0  0
   39.2102    5.0504   11.9142 H   0  0  0  0  0  0  0  0  0  0  0  0
  1  6  2  0
  1  2  1  0
  1 32  1  0
  2  3  2  0
  2 33  1  0
  3  4  1  0
  3  7  1  0
  4  5  2  0
  4 34  1  0
  5 21  1  0
  5  6  1  0
  6 35  1  0
  7  8  1  0
  7 11  2  0
  8  9  1  0
  9 13  1  0
  9 10  2  0
 10 11  1  0
 10 16  1  0
 11 12  1  0
 13 15  1  0
 13 14  2  0
 16 17  1  0
 17 18  1  0
 17 36  1  0
 17 37  1  0
 18 19  1  0
 18 20  2  0
 21 22  1  0
 21 38  1  0
 22 23  1  0
 22 27  1  0
 22 39  1  0
 23 24  1  0
 23 40  1  0
 23 41  1  0
 24 25  1  0
 24 42  1  0
 24 43  1  0
 25 28  1  0
 25 26  1  0
 26 27  1  0
 26 44  1  0
 26 45  1  0
 27 46  1  0
 27 47  1  0
 28 30  2  0
 28 29  2  0
 28 31  1  0
 31 48  1  0
 31 49  1  0
 31 50  1  0
M  CHG  2  15  -1  19  -1
M  END
>  <s_m_entry_id>  (1) 
1222

>  <MODEL>  (1) 
4

>  <REMARK>  (1) 
 VINA RESULT:    -7.202      1.478      1.947
 INTER + INTRA:         -11.031
 INTER:                 -10.667
 INTRA:                  -0.365
 UNBOUND:                -0.461
  Name = /scratch/kmzp800/tmpxx8z9bjc/tmp1se9nl1j.pdb
  9 active torsions:
  status: ('A' for Active; 'I' for Inactive)
    1  A    between atoms: C3_3  and  C4_4
    2  A    between atoms: C5_6  and  C6_7
    3  A    between atoms: C7_10  and  O3_11
    4  A    between atoms: O3_11  and  C8_12
    5  A    between atoms: C8_12  and  C9_13
    6  A    between atoms: C12_19  and  N1_20
    7  A    between atoms: N1_20  and  C13_21
    8  A    between atoms: N2_24  and  S2_25
    9  A    between atoms: S2_25  and  C16_28
                            x       y       z     vdW  Elec       q    Type
                         _______ _______ _______ _____ _____    ______ ____

>  <TORSDO>  (1) 
F 8

>  <grid_id>  (1) 
ptp1b-prepared

>  <grid_path>  (1) 
ptp1b_vina.pdbqt

>  <grid_filename>  (1) 
ptp1b_vina.pdbqt

>  <docking_score>  (1) 
-7.202

>  <compound_name>  (1) 
lig_23482

>  <index_string>  (1) 
5:0:0

>  <s_m_Source_Path>  (1) 
/projects/mai/users/kmzp800_harry/pmx_colab/docking_jobs/ptp1b

>  <s_m_Source_File>  (1) 
ptp1b_confs_vina_mcs.sdf

>  <i_m_Source_File_Index>  (1) 
6

$$$$
