11:0:0
     RDKit          3D

 50 54  0  0  1  0  0  0  0  0999 V2000
   -4.5564   -3.1634   15.5200 C   0  0  0  0  0  0  0  0  0  0  0  0
   -3.9012   -2.2391   14.6608 O   0  0  0  0  0  0  0  0  0  0  0  0
   -2.5397   -2.0629   14.8124 C   0  0  0  0  0  0  0  0  0  0  0  0
   -1.7444   -2.8384   15.6911 C   0  0  0  0  0  0  0  0  0  0  0  0
   -0.3677   -2.5866   15.8136 C   0  0  0  0  0  0  0  0  0  0  0  0
    0.2466   -1.5607   15.0697 C   0  0  0  0  0  0  0  0  0  0  0  0
    1.6111   -1.3344   15.3034 N   0  0  0  0  0  0  0  0  0  0  0  0
    2.5288   -0.4412   14.7284 C   0  0  0  0  0  0  0  0  0  0  0  0
    2.1924    0.3661   13.7634 N   0  0  0  0  0  0  0  0  0  0  0  0
    3.1204    1.2400   13.2445 C   0  0  0  0  0  0  0  0  0  0  0  0
    4.4218    1.2880   13.6939 C   0  0  0  0  0  0  0  0  0  0  0  0
    4.7592    0.4802   14.7301 N   0  0  0  0  0  0  0  0  0  0  0  0
    5.9039    0.3760   15.4927 C   0  0  0  0  0  0  0  0  0  0  0  0
    5.5882   -0.4932   16.5068 C   0  0  0  0  0  0  0  0  0  0  0  0
    4.3460   -1.0604   16.3329 N   0  0  0  0  0  0  0  0  0  0  0  0
    3.8276   -0.4202   15.2918 C   0  0  0  0  0  0  0  0  0  0  0  0
    2.6385    2.1276   12.1605 C   0  0  0  0  0  0  0  0  0  0  0  0
    1.2892    2.5512   12.0707 C   0  0  0  0  0  0  0  0  0  0  0  0
    0.8527    3.3843   11.0137 C   0  0  0  0  0  0  0  0  0  0  0  0
    1.7814    3.8271   10.0544 C   0  0  0  0  0  0  0  0  0  0  0  0
    3.1282    3.4481   10.1440 C   0  0  0  0  0  0  0  0  0  0  0  0
    3.7231    4.1156    9.0791 C   0  0  0  0  0  0  0  0  0  0  0  0
    2.9480    5.0534    8.6033 N   0  0  0  0  0  0  0  0  0  0  0  0
    1.7211    4.7791    9.0686 N   0  0  0  0  0  0  0  0  0  0  0  0
    0.5855    5.5619    8.6135 C   0  0  0  0  0  0  0  0  0  0  0  0
    3.5435    2.5925   11.1765 C   0  0  0  0  0  0  0  0  0  0  0  0
   -0.5437   -0.8118   14.1685 C   0  0  0  0  0  0  0  0  0  0  0  0
   -1.9289   -1.0519   14.0379 C   0  0  0  0  0  0  0  0  0  0  0  0
   -2.7498   -0.3459   13.1809 O   0  0  0  0  0  0  0  0  0  0  0  0
   -2.1674    0.6548   12.3557 C   0  0  0  0  0  0  0  0  0  0  0  0
   -5.6278   -3.1443   15.3122 H   0  0  0  0  0  0  0  0  0  0  0  0
   -4.2009   -4.1813   15.3439 H   0  0  0  0  0  0  0  0  0  0  0  0
   -4.4232   -2.9006   16.5713 H   0  0  0  0  0  0  0  0  0  0  0  0
   -2.1715   -3.6219   16.2972 H   0  0  0  0  0  0  0  0  0  0  0  0
    0.2108   -3.1782   16.5111 H   0  0  0  0  0  0  0  0  0  0  0  0
    2.0296   -1.9062   16.0286 H   0  0  0  0  0  0  0  0  0  0  0  0
    5.1747    1.9804   13.3409 H   0  0  0  0  0  0  0  0  0  0  0  0
    6.7623    0.9961   15.2866 H   0  0  0  0  0  0  0  0  0  0  0  0
    6.1163   -0.7017   17.4116 H   0  0  0  0  0  0  0  0  0  0  0  0
    0.5746    2.2369   12.8181 H   0  0  0  0  0  0  0  0  0  0  0  0
   -0.1712    3.7244   10.9743 H   0  0  0  0  0  0  0  0  0  0  0  0
    4.7360    4.0059    8.7647 H   0  0  0  0  0  0  0  0  0  0  0  0
   -0.0963    5.7421    9.4450 H   0  0  0  0  0  0  0  0  0  0  0  0
    0.9179    6.5254    8.2266 H   0  0  0  0  0  0  0  0  0  0  0  0
    0.0475    5.0260    7.8237 H   0  0  0  0  0  0  0  0  0  0  0  0
    4.5809    2.2984   11.2132 H   0  0  0  0  0  0  0  0  0  0  0  0
   -0.1052   -0.0328   13.5784 H   0  0  0  0  0  0  0  0  0  0  0  0
   -2.9443    1.0830   11.7215 H   0  0  0  0  0  0  0  0  0  0  0  0
   -1.7540    1.4704   12.9476 H   0  0  0  0  0  0  0  0  0  0  0  0
   -1.3884    0.2478   11.7066 H   0  0  0  0  0  0  0  0  0  0  0  0
  1  2  1  0
  1 31  1  0
  1 32  1  0
  1 33  1  0
  2  3  1  0
  3  4  2  0
  3 28  1  0
  4  5  1  0
  4 34  1  0
  5  6  2  0
  5 35  1  0
  6  7  1  0
  6 27  1  0
  7  8  1  0
  7 36  1  0
  8  9  2  0
  8 16  1  0
  9 10  1  0
 10 11  2  0
 10 17  1  0
 11 12  1  0
 11 37  1  0
 12 13  1  0
 12 16  1  0
 13 14  2  0
 13 38  1  0
 14 15  1  0
 14 39  1  0
 15 16  2  0
 17 18  2  0
 17 26  1  0
 18 19  1  0
 18 40  1  0
 19 20  2  0
 19 41  1  0
 20 21  1  0
 20 24  1  0
 21 22  1  0
 21 26  2  0
 22 23  2  0
 22 42  1  0
 23 24  1  0
 24 25  1  0
 25 43  1  0
 25 44  1  0
 25 45  1  0
 26 46  1  0
 27 28  2  0
 27 47  1  0
 28 29  1  0
 29 30  1  0
 30 48  1  0
 30 49  1  0
 30 50  1  0
M  END
>  <s_m_entry_id>  (1) 
1114

>  <IC50[nM]>  (1) 
20.9

>  <s_m_Source_Path>  (1) 
/projects/mai/users/kmzp800_harry/pmx_colab/docking_jobs/syk

>  <s_m_Source_File>  (1) 
tnks2_lig.sdf

>  <i_m_Source_File_Index>  (1) 
13

>  <s_m_job_name>  (1) 
glide-dock_SP_syk_mcs

>  <r_i_docking_score>  (1) 
-6.66146938039113

>  <r_i_glide_gscore>  (1) 
-6.66146938039113

>  <r_i_glide_emodel>  (1) 
-29.211024018083

>  <index_string>  (1) 
11:0:0

$$$$
