25:0:0
     RDKit          3D

 39 41  0  0  1  0  0  0  0  0999 V2000
  -14.7940  -16.9500  -26.5950 N   0  0  0  0  0  0  0  0  0  0  0  0
  -15.1600  -17.8070  -25.6970 C   0  0  0  0  0  0  0  0  0  0  0  0
  -15.8210  -17.3330  -24.5830 N   0  0  0  0  0  0  0  0  0  0  0  0
  -16.1750  -16.0640  -24.2760 C   0  0  0  0  0  0  0  0  0  0  0  0
  -16.8710  -15.8190  -23.2930 O   0  0  0  0  0  0  0  0  0  0  0  0
  -15.0250  -15.5720  -26.4370 C   0  0  0  0  0  0  0  0  0  0  0  0
  -15.6610  -15.0750  -25.2920 C   0  0  0  0  0  0  0  0  0  0  0  0
  -15.8090  -13.7030  -25.1030 C   0  0  0  0  0  0  0  0  0  0  0  0
  -15.3220  -12.8250  -26.0740 C   0  0  0  0  0  0  0  0  0  0  0  0
  -14.7200  -13.3150  -27.2350 C   0  0  0  0  0  0  0  0  0  0  0  0
  -14.5840  -14.6920  -27.4260 C   0  0  0  0  0  0  0  0  0  0  0  0
  -14.9380  -19.2590  -25.8020 C   0  0  0  0  0  0  0  0  0  0  0  0
  -14.3300  -19.9630  -24.7590 C   0  0  0  0  0  0  0  0  0  0  0  0
  -14.0340  -21.3060  -24.8980 C   0  0  0  0  0  0  0  0  0  0  0  0
  -14.2990  -21.9700  -26.0930 C   0  0  0  0  0  0  0  0  0  0  0  0
  -15.0010  -21.3000  -27.1020 C   0  0  0  0  0  0  0  0  0  0  0  0
  -15.3120  -19.9520  -26.9590 C   0  0  0  0  0  0  0  0  0  0  0  0
  -13.7170  -23.3810  -26.2790 C   0  0  0  0  0  0  0  0  0  0  0  0
  -13.0950  -23.8760  -24.9520 C   0  0  0  0  0  0  0  0  0  0  0  0
  -12.6870  -23.3340  -27.4390 C   0  0  0  0  0  0  0  0  0  0  0  0
  -14.7650  -24.3980  -26.7190 C   0  0  0  0  0  0  0  0  0  0  0  0
  -16.0818  -18.0458  -23.8867 H   0  0  0  0  0  0  0  0  0  0  0  0
  -16.3034  -13.3156  -24.2000 H   0  0  0  0  0  0  0  0  0  0  0  0
  -15.4133  -11.7392  -25.9231 H   0  0  0  0  0  0  0  0  0  0  0  0
  -14.3524  -12.6155  -28.0002 H   0  0  0  0  0  0  0  0  0  0  0  0
  -14.1319  -15.0803  -28.3506 H   0  0  0  0  0  0  0  0  0  0  0  0
  -14.0851  -19.4444  -23.8203 H   0  0  0  0  0  0  0  0  0  0  0  0
  -13.5851  -21.8551  -24.0572 H   0  0  0  0  0  0  0  0  0  0  0  0
  -15.3072  -21.8407  -28.0097 H   0  0  0  0  0  0  0  0  0  0  0  0
  -15.8547  -19.4278  -27.7594 H   0  0  0  0  0  0  0  0  0  0  0  0
  -13.6437  -23.4393  -24.1045 H   0  0  0  0  0  0  0  0  0  0  0  0
  -13.1588  -24.9731  -24.9039 H   0  0  0  0  0  0  0  0  0  0  0  0
  -12.0402  -23.5676  -24.9039 H   0  0  0  0  0  0  0  0  0  0  0  0
  -11.6693  -23.2876  -27.0241 H   0  0  0  0  0  0  0  0  0  0  0  0
  -12.7899  -24.2378  -28.0576 H   0  0  0  0  0  0  0  0  0  0  0  0
  -12.8718  -22.4434  -28.0576 H   0  0  0  0  0  0  0  0  0  0  0  0
  -15.2317  -24.8509  -25.8318 H   0  0  0  0  0  0  0  0  0  0  0  0
  -15.5351  -23.8938  -27.3213 H   0  0  0  0  0  0  0  0  0  0  0  0
  -14.2841  -25.1829  -27.3213 H   0  0  0  0  0  0  0  0  0  0  0  0
  1  6  1  0
  1  2  2  0
  2  3  1  0
  2 12  1  0
  3  4  1  0
  4  5  2  0
  4  7  1  0
  6  7  2  0
  6 11  1  0
  7  8  1  0
  8  9  2  0
  9 10  1  0
 10 11  2  0
 12 13  2  0
 12 17  1  0
 13 14  1  0
 14 15  2  0
 15 16  1  0
 15 18  1  0
 16 17  2  0
 18 19  1  0
 18 20  1  0
 18 21  1  0
  3 22  1  0
  8 23  1  0
  9 24  1  0
 10 25  1  0
 11 26  1  0
 13 27  1  0
 14 28  1  0
 16 29  1  0
 17 30  1  0
 19 31  1  0
 19 32  1  0
 19 33  1  0
 20 34  1  0
 20 35  1  0
 20 36  1  0
 21 37  1  0
 21 38  1  0
 21 39  1  0
M  END
>  <s_m_entry_id>  (1) 
2353

>  <MODEL>  (1) 
1

>  <REMARK>  (1) 
 VINA RESULT:   -11.211      0.000      0.000
 INTER + INTRA:         -13.016
 INTER:                 -12.521
 INTRA:                  -0.494
 UNBOUND:                -0.494
  Name = 3a
  5 active torsions:
  status: ('A' for Active; 'I' for Inactive)
    1  A    between atoms: C_2  and  C_6
    2  A    between atoms: C_9  and  C_12
    3  A    between atoms: C_12  and  C_19
    4  A    between atoms: C_12  and  C_20
    5  A    between atoms: C_12  and  C_21
                            x       y       z     vdW  Elec       q    Type
                         _______ _______ _______ _____ _____    ______ ____

>  <TORSDO>  (1) 
F 2

>  <s_m_Source_Path>  (1) 
/projects/mai/users/kmzp800_harry/pmx_colab/docking_jobs/tnks2/vina_prep/output

>  <s_m_Source_File>  (1) 
tnks_naive_vina.sdf

>  <i_m_Source_File_Index>  (1) 
26

>  <index_string>  (1) 
25:0:0

$$$$
