15:0:0
     RDKit          3D

 36 38  0  0  1  0  0  0  0  0999 V2000
  -15.0867  -19.4271  -25.7482 C   0  0  0  0  0  0  0  0  0  0  0  0
  -14.8485  -20.0117  -26.9413 N   0  0  0  0  0  0  0  0  0  0  0  0
  -15.0697  -20.1404  -24.5319 C   0  0  0  0  0  0  0  0  0  0  0  0
  -15.3134  -17.9562  -25.7570 C   0  0  0  0  0  0  0  0  0  0  0  0
  -14.5777  -21.3238  -26.9663 C   0  0  0  0  0  0  0  0  0  0  0  0
  -14.7517  -21.5104  -24.5679 C   0  0  0  0  0  0  0  0  0  0  0  0
  -14.4804  -22.1186  -25.8134 C   0  0  0  0  0  0  0  0  0  0  0  0
  -16.0473  -17.3537  -24.7280 N   0  0  0  0  0  0  0  0  0  0  0  0
  -16.2374  -16.0349  -24.5926 C   0  0  0  0  0  0  0  0  0  0  0  0
  -14.8474  -17.2396  -26.7395 N   0  0  0  0  0  0  0  0  0  0  0  0
  -14.9885  -15.8482  -26.7386 C   0  0  0  0  0  0  0  0  0  0  0  0
  -15.6499  -15.1823  -25.6831 C   0  0  0  0  0  0  0  0  0  0  0  0
  -15.7255  -13.7701  -25.6772 C   0  0  0  0  0  0  0  0  0  0  0  0
  -15.1137  -13.0374  -26.7204 C   0  0  0  0  0  0  0  0  0  0  0  0
  -14.4495  -13.7032  -27.7653 C   0  0  0  0  0  0  0  0  0  0  0  0
  -14.4056  -15.1064  -27.7834 C   0  0  0  0  0  0  0  0  0  0  0  0
  -16.8495  -15.5702  -23.6404 O   0  0  0  0  0  0  0  0  0  0  0  0
  -14.1477  -23.5951  -25.9033 C   0  0  0  0  0  0  0  0  0  0  0  0
  -13.3277  -23.9680  -24.8138 O   0  0  0  0  0  0  0  0  0  0  0  0
  -15.1677  -11.6878  -26.7387 F   0  0  0  0  0  0  0  0  0  0  0  0
  -13.3289  -24.0121  -27.1373 C   0  0  0  0  0  0  0  0  0  0  0  0
  -15.4816  -24.3727  -25.9385 C   0  0  0  0  0  0  0  0  0  0  0  0
  -15.2743  -19.6581  -23.5885 H   0  0  0  0  0  0  0  0  0  0  0  0
  -14.4059  -21.7402  -27.9392 H   0  0  0  0  0  0  0  0  0  0  0  0
  -14.7145  -22.0793  -23.6502 H   0  0  0  0  0  0  0  0  0  0  0  0
  -16.4907  -17.9513  -24.0400 H   0  0  0  0  0  0  0  0  0  0  0  0
  -16.2301  -13.2488  -24.8745 H   0  0  0  0  0  0  0  0  0  0  0  0
  -13.9886  -13.1319  -28.5591 H   0  0  0  0  0  0  0  0  0  0  0  0
  -13.8983  -15.6130  -28.5901 H   0  0  0  0  0  0  0  0  0  0  0  0
  -13.9413  -23.9736  -28.0329 H   0  0  0  0  0  0  0  0  0  0  0  0
  -12.9866  -25.0450  -27.0512 H   0  0  0  0  0  0  0  0  0  0  0  0
  -12.4483  -23.3899  -27.2825 H   0  0  0  0  0  0  0  0  0  0  0  0
  -16.1226  -24.0249  -26.7496 H   0  0  0  0  0  0  0  0  0  0  0  0
  -15.3284  -25.4383  -26.1063 H   0  0  0  0  0  0  0  0  0  0  0  0
  -16.0479  -24.2555  -25.0120 H   0  0  0  0  0  0  0  0  0  0  0  0
  -12.4746  -23.5731  -24.9255 H   0  0  0  0  0  0  0  0  0  0  0  0
  1  2  2  0
  1  3  1  0
  1  4  1  0
  2  5  1  0
  3  6  2  0
  3 23  1  0
  4  8  1  0
  4 10  2  0
  5  7  2  0
  5 24  1  0
  6  7  1  0
  6 25  1  0
  7 18  1  0
  8  9  1  0
  8 26  1  0
  9 12  1  0
  9 17  2  0
 10 11  1  0
 11 12  2  0
 11 16  1  0
 12 13  1  0
 13 14  2  0
 13 27  1  0
 14 15  1  0
 14 20  1  0
 15 16  2  0
 15 28  1  0
 16 29  1  0
 18 19  1  0
 18 21  1  0
 18 22  1  0
 19 36  1  0
 21 30  1  0
 21 31  1  0
 21 32  1  0
 22 33  1  0
 22 34  1  0
 22 35  1  0
M  END
>  <s_m_entry_id>  (1) 
457

>  <Name>  (1) 
7

>  <IC50[nM]>  (1) 
700

>  <s_m_Source_Path>  (1) 
/projects/mai/users/kmzp800_harry/pmx_colab/docking_jobs/tnks2

>  <s_m_Source_File>  (1) 
tnks2_lig.sdf

>  <i_m_Source_File_Index>  (1) 
16

>  <s_m_job_name>  (1) 
glide-dock_SP_tnks2_core_const

>  <r_i_docking_score>  (1) 
-10.5853723243358

>  <r_i_glide_gscore>  (1) 
-10.5853723243358

>  <r_i_glide_emodel>  (1) 
-65.7634371043015

>  <index_string>  (1) 
15:0:0

$$$$
