7:0:0
     RDKit          3D

 37 39  0  0  1  0  0  0  0  0999 V2000
  -13.1080  -22.6470  -25.1340 C   0  0  0  0  0  0  0  0  0  0  0  0
  -14.2060  -21.9460  -25.6350 C   0  0  0  0  0  0  0  0  0  0  0  0
  -12.9850  -24.0110  -25.4070 C   0  0  0  0  0  0  0  0  0  0  0  0
  -15.2130  -22.6080  -26.3490 C   0  0  0  0  0  0  0  0  0  0  0  0
  -14.2630  -20.5600  -25.4490 N   0  0  0  0  0  0  0  0  0  0  0  0
  -13.9500  -24.6600  -26.1790 C   0  0  0  0  0  0  0  0  0  0  0  0
  -15.0630  -23.9580  -26.6520 C   0  0  0  0  0  0  0  0  0  0  0  0
  -16.4290  -21.8050  -26.7900 C   0  0  0  0  0  0  0  0  0  0  0  0
  -16.2830  -20.4940  -26.5310 N   0  0  0  0  0  0  0  0  0  0  0  0
  -17.4820  -22.2070  -27.2900 O   0  0  0  0  0  0  0  0  0  0  0  0
  -15.2490  -19.8520  -25.8940 C   0  0  0  0  0  0  0  0  0  0  0  0
  -16.2080  -24.7420  -27.6460 Cl  0  0  0  0  0  0  0  0  0  0  0  0
  -15.3480  -18.4050  -25.7330 C   0  0  0  0  0  0  0  0  0  0  0  0
  -14.6820  -17.5760  -26.6390 C   0  0  0  0  0  0  0  0  0  0  0  0
  -14.7590  -16.2040  -26.5040 C   0  0  0  0  0  0  0  0  0  0  0  0
  -15.4900  -15.6470  -25.4580 C   0  0  0  0  0  0  0  0  0  0  0  0
  -16.1660  -16.4710  -24.5570 C   0  0  0  0  0  0  0  0  0  0  0  0
  -16.0900  -17.8430  -24.6860 C   0  0  0  0  0  0  0  0  0  0  0  0
  -15.6160  -14.1410  -25.3430 C   0  0  0  0  0  0  0  0  0  0  0  0
  -16.9100  -13.6300  -25.9260 C   0  0  0  0  0  0  0  0  0  0  0  0
  -14.3640  -13.5030  -25.9240 C   0  0  0  0  0  0  0  0  0  0  0  0
  -15.7640  -13.6710  -24.0370 O   0  0  0  0  0  0  0  0  0  0  0  0
  -12.3473  -22.1304  -24.5303 H   0  0  0  0  0  0  0  0  0  0  0  0
  -12.1265  -24.5747  -25.0131 H   0  0  0  0  0  0  0  0  0  0  0  0
  -13.8345  -25.7279  -26.4162 H   0  0  0  0  0  0  0  0  0  0  0  0
  -17.0510  -19.8884  -26.8542 H   0  0  0  0  0  0  0  0  0  0  0  0
  -14.0965  -18.0161  -27.4596 H   0  0  0  0  0  0  0  0  0  0  0  0
  -14.2427  -15.5509  -27.2230 H   0  0  0  0  0  0  0  0  0  0  0  0
  -16.7593  -16.0270  -23.7441 H   0  0  0  0  0  0  0  0  0  0  0  0
  -16.6109  -18.4938  -23.9683 H   0  0  0  0  0  0  0  0  0  0  0  0
  -17.5973  -13.3586  -25.1112 H   0  0  0  0  0  0  0  0  0  0  0  0
  -16.7082  -12.7440  -26.5460 H   0  0  0  0  0  0  0  0  0  0  0  0
  -17.3680  -14.4148  -26.5460 H   0  0  0  0  0  0  0  0  0  0  0  0
  -13.7090  -13.1692  -25.1057 H   0  0  0  0  0  0  0  0  0  0  0  0
  -13.8308  -14.2393  -26.5433 H   0  0  0  0  0  0  0  0  0  0  0  0
  -14.6464  -12.6389  -26.5433 H   0  0  0  0  0  0  0  0  0  0  0  0
  -15.5367  -14.3929  -23.3988 H   0  0  0  0  0  0  0  0  0  0  0  0
  1  2  2  0
  1  3  1  0
  2  5  1  0
  2  4  1  0
  3  6  2  0
  4  7  2  0
  4  8  1  0
  5 11  2  0
  6  7  1  0
  7 12  1  0
  8  9  1  0
  8 10  2  0
  9 11  1  0
 11 13  1  0
 13 18  1  0
 13 14  2  0
 14 15  1  0
 15 16  2  0
 16 19  1  0
 16 17  1  0
 17 18  2  0
 19 22  1  0
 19 20  1  0
 19 21  1  0
  1 23  1  0
  3 24  1  0
  6 25  1  0
  9 26  1  0
 14 27  1  0
 15 28  1  0
 17 29  1  0
 18 30  1  0
 20 31  1  0
 20 32  1  0
 20 33  1  0
 21 34  1  0
 21 35  1  0
 21 36  1  0
 22 37  1  0
M  END
>  <s_m_entry_id>  (1) 
2417

>  <MODEL>  (1) 
1

>  <REMARK>  (1) 
 VINA RESULT:    -8.885      0.000      0.000
 INTER + INTRA:         -10.629
 INTER:                 -10.193
 INTRA:                  -0.437
 UNBOUND:                -0.446
  Name = 5c
  5 active torsions:
  status: ('A' for Active; 'I' for Inactive)
    1  A    between atoms: C_11  and  C_12
    2  A    between atoms: C_15  and  C_18
    3  A    between atoms: C_18  and  O_19
    4  A    between atoms: C_18  and  C_20
    5  A    between atoms: C_18  and  C_21
                            x       y       z     vdW  Elec       q    Type
                         _______ _______ _______ _____ _____    ______ ____

>  <TORSDO>  (1) 
F 3

>  <s_m_Source_Path>  (1) 
/projects/mai/users/kmzp800_harry/pmx_colab/docking_jobs/tnks2/vina_prep/output_mcs

>  <s_m_Source_File>  (1) 
tnks_mcs_vina__all_poses.sdf

>  <i_m_Source_File_Index>  (1) 
35

>  <index_string>  (1) 
7:0:0

$$$$
