26:0:0
     RDKit          3D

 27 29  0  0  1  0  0  0  0  0999 V2000
  -14.7850  -17.2890  -26.4420 N   0  0  0  0  0  0  0  0  0  0  0  0
  -15.0180  -15.9130  -26.4800 C   0  0  0  0  0  0  0  0  0  0  0  0
  -15.7770  -15.3000  -25.4720 C   0  0  0  0  0  0  0  0  0  0  0  0
  -15.3910  -13.1770  -26.5040 C   0  0  0  0  0  0  0  0  0  0  0  0
  -14.6510  -13.7720  -27.5180 C   0  0  0  0  0  0  0  0  0  0  0  0
  -15.9660  -13.9200  -25.4790 C   0  0  0  0  0  0  0  0  0  0  0  0
  -14.4780  -15.1520  -27.5290 C   0  0  0  0  0  0  0  0  0  0  0  0
  -16.4010  -16.1720  -24.4010 C   0  0  0  0  0  0  0  0  0  0  0  0
  -16.0540  -17.4800  -24.5500 N   0  0  0  0  0  0  0  0  0  0  0  0
  -15.2600  -18.0550  -25.5230 C   0  0  0  0  0  0  0  0  0  0  0  0
  -17.1660  -15.7970  -23.5100 O   0  0  0  0  0  0  0  0  0  0  0  0
  -15.0030  -19.5060  -25.5320 C   0  0  0  0  0  0  0  0  0  0  0  0
  -14.9000  -20.1680  -26.7640 C   0  0  0  0  0  0  0  0  0  0  0  0
  -14.8550  -20.2330  -24.3460 C   0  0  0  0  0  0  0  0  0  0  0  0
  -14.6490  -21.5250  -26.8120 C   0  0  0  0  0  0  0  0  0  0  0  0
  -14.5820  -21.5930  -24.3990 C   0  0  0  0  0  0  0  0  0  0  0  0
  -14.4790  -22.2470  -25.6340 C   0  0  0  0  0  0  0  0  0  0  0  0
  -15.5261  -12.0854  -26.5122 H   0  0  0  0  0  0  0  0  0  0  0  0
  -14.2032  -13.1536  -28.3098 H   0  0  0  0  0  0  0  0  0  0  0  0
  -16.5567  -13.4291  -24.6915 H   0  0  0  0  0  0  0  0  0  0  0  0
  -13.9268  -15.6395  -28.3467 H   0  0  0  0  0  0  0  0  0  0  0  0
  -16.4338  -18.1263  -23.8437 H   0  0  0  0  0  0  0  0  0  0  0  0
  -15.0201  -19.6018  -27.6994 H   0  0  0  0  0  0  0  0  0  0  0  0
  -14.9547  -19.7282  -23.3738 H   0  0  0  0  0  0  0  0  0  0  0  0
  -14.5832  -22.0368  -27.7835 H   0  0  0  0  0  0  0  0  0  0  0  0
  -14.4458  -22.1604  -23.4665 H   0  0  0  0  0  0  0  0  0  0  0  0
  -14.2649  -23.3253  -25.6724 H   0  0  0  0  0  0  0  0  0  0  0  0
  1 10  2  0
  1  2  1  0
  2  3  2  0
  2  7  1  0
  3  8  1  0
  3  6  1  0
  4  6  2  0
  4  5  1  0
  5  7  2  0
  8 11  2  0
  8  9  1  0
  9 10  1  0
 10 12  1  0
 12 14  1  0
 12 13  2  0
 13 15  1  0
 14 16  2  0
 15 17  2  0
 16 17  1  0
  4 18  1  0
  5 19  1  0
  6 20  1  0
  7 21  1  0
  9 22  1  0
 13 23  1  0
 14 24  1  0
 15 25  1  0
 16 26  1  0
 17 27  1  0
M  END
>  <s_m_entry_id>  (1) 
2498

>  <MODEL>  (1) 
1

>  <REMARK>  (1) 
 VINA RESULT:   -10.563      0.000      0.000
 INTER + INTRA:         -11.371
 INTER:                 -11.158
 INTRA:                  -0.213
 UNBOUND:                -0.191
  Name = 1a
  1 active torsions:
  status: ('A' for Active; 'I' for Inactive)
    1  A    between atoms: C_1  and  C_16
                            x       y       z     vdW  Elec       q    Type
                         _______ _______ _______ _____ _____    ______ ____

>  <TORSDO>  (1) 
F 1

>  <s_m_Source_Path>  (1) 
/projects/mai/users/kmzp800_harry/pmx_colab/docking_jobs/tnks2/vina_prep/output_mcs

>  <s_m_Source_File>  (1) 
tnks_mcs_vina__all_poses.sdf

>  <i_m_Source_File_Index>  (1) 
116

>  <index_string>  (1) 
26:0:0

$$$$
