33:0:0
     RDKit          3D

 52 57  0  0  1  0  0  0  0  0999 V2000
   -0.9997   -5.7564   15.1571 C   0  0  0  0  0  0  0  0  0  0  0  0
   -1.5770   -4.3900   15.5174 C   0  0  0  0  0  0  0  0  0  0  0  0
   -2.7695   -4.6823   16.2173 O   0  0  0  0  0  0  0  0  0  0  0  0
   -0.6192   -3.4132   16.2160 C   0  0  0  0  0  0  0  0  0  0  0  0
   -1.0728   -2.3956   15.2822 N   0  0  0  0  0  0  0  0  0  0  0  0
   -1.7362   -3.3461   14.4027 C   0  0  0  0  0  0  0  0  0  0  0  0
   -0.1246   -1.5130   14.6966 C   0  0  0  0  0  0  0  0  0  0  0  0
   -0.4947   -0.7263   13.5840 C   0  0  0  0  0  0  0  0  0  0  0  0
    0.3752    0.2139   13.0007 C   0  0  0  0  0  0  0  0  0  0  0  0
    1.6701    0.4106   13.5239 C   0  0  0  0  0  0  0  0  0  0  0  0
    2.5760    1.3587   13.0196 N   0  0  0  0  0  0  0  0  0  0  0  0
    2.3396    2.6368   12.4829 C   0  0  0  0  0  0  0  0  0  0  0  0
    1.1224    3.0092   12.2013 N   0  0  0  0  0  0  0  0  0  0  0  0
    0.9043    4.2582   11.6738 C   0  0  0  0  0  0  0  0  0  0  0  0
    1.9102    5.1597   11.4307 C   0  0  0  0  0  0  0  0  0  0  0  0
    3.1763    4.7772   11.7423 N   0  0  0  0  0  0  0  0  0  0  0  0
    4.3873    5.4348   11.6396 C   0  0  0  0  0  0  0  0  0  0  0  0
    5.3396    4.5762   12.1156 C   0  0  0  0  0  0  0  0  0  0  0  0
    4.7700    3.3650   12.4891 N   0  0  0  0  0  0  0  0  0  0  0  0
    3.4580    3.4970   12.2775 C   0  0  0  0  0  0  0  0  0  0  0  0
   -0.5004    4.5644   11.3684 C   0  0  0  0  0  0  0  0  0  0  0  0
   -1.4169    4.8176   12.4134 C   0  0  0  0  0  0  0  0  0  0  0  0
   -2.7741    5.0858   12.1424 C   0  0  0  0  0  0  0  0  0  0  0  0
   -3.2531    5.1028   10.8124 C   0  0  0  0  0  0  0  0  0  0  0  0
   -4.5067    5.3172   10.1550 C   0  0  0  0  0  0  0  0  0  0  0  0
   -4.3969    5.2073    8.8518 N   0  0  0  0  0  0  0  0  0  0  0  0
   -3.0892    4.9325    8.6175 N   0  0  0  0  0  0  0  0  0  0  0  0
   -2.3207    4.8496    9.7693 C   0  0  0  0  0  0  0  0  0  0  0  0
   -0.9622    4.5888   10.0322 C   0  0  0  0  0  0  0  0  0  0  0  0
    2.0793   -0.3964   14.6012 C   0  0  0  0  0  0  0  0  0  0  0  0
    1.1899   -1.3190   15.1892 C   0  0  0  0  0  0  0  0  0  0  0  0
   -0.0574   -5.6583   14.6177 H   0  0  0  0  0  0  0  0  0  0  0  0
   -1.6851   -6.3334   14.5351 H   0  0  0  0  0  0  0  0  0  0  0  0
   -0.7890   -6.3452   16.0515 H   0  0  0  0  0  0  0  0  0  0  0  0
   -2.5135   -4.7928   17.1287 H   0  0  0  0  0  0  0  0  0  0  0  0
   -0.8712   -3.1907   17.2527 H   0  0  0  0  0  0  0  0  0  0  0  0
    0.4282   -3.7061   16.1016 H   0  0  0  0  0  0  0  0  0  0  0  0
   -1.1698   -3.5885   13.5017 H   0  0  0  0  0  0  0  0  0  0  0  0
   -2.7703   -3.0788   14.1800 H   0  0  0  0  0  0  0  0  0  0  0  0
   -1.4862   -0.8284   13.1674 H   0  0  0  0  0  0  0  0  0  0  0  0
    0.0244    0.7766   12.1486 H   0  0  0  0  0  0  0  0  0  0  0  0
    3.5361    1.2369   13.3044 H   0  0  0  0  0  0  0  0  0  0  0  0
    1.7588    6.1568   11.0314 H   0  0  0  0  0  0  0  0  0  0  0  0
    4.4290    6.4538   11.2798 H   0  0  0  0  0  0  0  0  0  0  0  0
    6.4072    4.7320   12.2072 H   0  0  0  0  0  0  0  0  0  0  0  0
   -1.0699    4.8069   13.4377 H   0  0  0  0  0  0  0  0  0  0  0  0
   -3.4528    5.2769   12.9595 H   0  0  0  0  0  0  0  0  0  0  0  0
   -5.4700    5.5428   10.5895 H   0  0  0  0  0  0  0  0  0  0  0  0
   -2.7688    4.8043    7.6582 H   0  0  0  0  0  0  0  0  0  0  0  0
   -0.2777    4.3961    9.2202 H   0  0  0  0  0  0  0  0  0  0  0  0
    3.0712   -0.2877   15.0170 H   0  0  0  0  0  0  0  0  0  0  0  0
    1.5409   -1.8729   16.0486 H   0  0  0  0  0  0  0  0  0  0  0  0
  1  2  1  0
  1 32  1  0
  1 33  1  0
  1 34  1  0
  2  3  1  0
  2  4  1  0
  2  6  1  0
  3 35  1  0
  4  5  1  0
  4 36  1  0
  4 37  1  0
  5  6  1  0
  5  7  1  0
  6 38  1  0
  6 39  1  0
  7  8  2  0
  7 31  1  0
  8  9  1  0
  8 40  1  0
  9 10  2  0
  9 41  1  0
 10 11  1  0
 10 30  1  0
 11 12  1  0
 11 42  1  0
 12 13  2  0
 12 20  1  0
 13 14  1  0
 14 15  2  0
 14 21  1  0
 15 16  1  0
 15 43  1  0
 16 17  1  0
 16 20  1  0
 17 18  2  0
 17 44  1  0
 18 19  1  0
 18 45  1  0
 19 20  2  0
 21 22  2  0
 21 29  1  0
 22 23  1  0
 22 46  1  0
 23 24  2  0
 23 47  1  0
 24 25  1  0
 24 28  1  0
 25 26  2  0
 25 48  1  0
 26 27  1  0
 27 28  1  0
 27 49  1  0
 28 29  2  0
 29 50  1  0
 30 31  2  0
 30 51  1  0
 31 52  1  0
M  END
>  <s_m_entry_id>  (1) 
713

>  <IC50[nM]>  (1) 
3.9

>  <s_m_Source_Path>  (1) 
/projects/mai/users/kmzp800_harry/pmx_colab/docking_jobs/syk

>  <s_m_Source_File>  (1) 
tnks2_lig.sdf

>  <i_m_Source_File_Index>  (1) 
34

>  <s_m_job_name>  (1) 
glide-dock_SP_tnks2_no_const

>  <r_i_docking_score>  (1) 
-6.63550805100336

>  <r_i_glide_gscore>  (1) 
-6.63550805100336

>  <r_i_glide_emodel>  (1) 
-70.0190511367257

>  <index_string>  (1) 
33:0:0

$$$$
