28:0:0
     RDKit          3D

 62 66  0  0  1  0  0  0  0  0999 V2000
    5.8760   -0.5150   16.3400 C   0  0  0  0  0  0  0  0  0  0  0  0
    4.5940   -0.9540   16.2500 N   0  0  0  0  0  0  0  0  0  0  0  0
    4.0860   -0.2380   15.2330 C   0  0  0  0  0  0  0  0  0  0  0  0
    2.7890   -0.3090   14.7310 C   0  0  0  0  0  0  0  0  0  0  0  0
    1.8320   -1.2140   15.3000 N   0  0  0  0  0  0  0  0  0  0  0  0
    2.4710    0.5110   13.6860 N   0  0  0  0  0  0  0  0  0  0  0  0
    3.3760    1.3800   13.1340 C   0  0  0  0  0  0  0  0  0  0  0  0
    4.6810    1.4310   13.6620 C   0  0  0  0  0  0  0  0  0  0  0  0
    4.9700    0.6080   14.6980 N   0  0  0  0  0  0  0  0  0  0  0  0
    6.1160    0.4590   15.3740 C   0  0  0  0  0  0  0  0  0  0  0  0
    0.4690   -1.3980   14.8910 C   0  0  0  0  0  0  0  0  0  0  0  0
   -0.2800   -2.5160   15.2760 C   0  0  0  0  0  0  0  0  0  0  0  0
   -1.6040   -2.6590   14.8570 C   0  0  0  0  0  0  0  0  0  0  0  0
   -2.2010   -1.6830   14.0440 C   0  0  0  0  0  0  0  0  0  0  0  0
   -1.4570   -0.5590   13.6530 C   0  0  0  0  0  0  0  0  0  0  0  0
   -0.1250   -0.4260   14.0800 C   0  0  0  0  0  0  0  0  0  0  0  0
   -3.5260   -1.8080   13.6140 O   0  0  0  0  0  0  0  0  0  0  0  0
   -4.0550   -3.0230   13.0980 C   0  0  0  0  0  0  0  0  0  0  0  0
   -2.0570    0.4100   12.8420 O   0  0  0  0  0  0  0  0  0  0  0  0
   -1.5130    0.8130   11.5930 C   0  0  0  0  0  0  0  0  0  0  0  0
    2.9740    2.2430   12.0040 C   0  0  0  0  0  0  0  0  0  0  0  0
    3.8740    2.5520   10.9720 C   0  0  0  0  0  0  0  0  0  0  0  0
    3.4790    3.3690    9.9110 C   0  0  0  0  0  0  0  0  0  0  0  0
    2.1810    3.8840    9.8710 C   0  0  0  0  0  0  0  0  0  0  0  0
    1.2690    3.5880   10.8910 C   0  0  0  0  0  0  0  0  0  0  0  0
    1.6730    2.7660   11.9530 C   0  0  0  0  0  0  0  0  0  0  0  0
   -0.1010    4.1300   10.8520 C   0  0  0  0  0  0  0  0  0  0  0  0
   -0.5330    4.6580    9.7910 O   0  0  0  0  0  0  0  0  0  0  0  0
   -0.9310    4.0540   12.0210 N   0  0  0  0  0  0  0  0  0  0  0  0
   -2.2770    4.5300   12.1520 C   0  0  0  0  0  0  0  0  0  0  0  0
   -3.3620    3.8620   11.5670 C   0  0  0  0  0  0  0  0  0  0  0  0
   -4.6610    4.3560   11.7170 C   0  0  0  0  0  0  0  0  0  0  0  0
   -4.8930    5.5270   12.4540 C   0  0  0  0  0  0  0  0  0  0  0  0
   -3.8070    6.1930   13.0370 C   0  0  0  0  0  0  0  0  0  0  0  0
   -2.5090    5.6970   12.8860 C   0  0  0  0  0  0  0  0  0  0  0  0
   -6.2610    6.0490   12.6130 C   0  0  0  0  0  0  0  0  0  0  0  0
   -6.5850    6.6790   13.6550 O   0  0  0  0  0  0  0  0  0  0  0  0
   -7.2340    5.8460   11.5920 N   0  0  0  0  0  0  0  0  0  0  0  0
    6.6164   -0.8759   17.0691 H   0  0  0  0  0  0  0  0  0  0  0  0
    2.1584   -1.7937   16.0863 H   0  0  0  0  0  0  0  0  0  0  0  0
    5.4374    2.1141   13.2481 H   0  0  0  0  0  0  0  0  0  0  0  0
    7.0590    0.9983   15.2009 H   0  0  0  0  0  0  0  0  0  0  0  0
    0.1777   -3.2872   15.9130 H   0  0  0  0  0  0  0  0  0  0  0  0
   -2.1828   -3.5419   15.1659 H   0  0  0  0  0  0  0  0  0  0  0  0
    0.4582    0.4544   13.7722 H   0  0  0  0  0  0  0  0  0  0  0  0
   -4.3416   -3.6813   13.9314 H   0  0  0  0  0  0  0  0  0  0  0  0
   -4.9398   -2.8052   12.4817 H   0  0  0  0  0  0  0  0  0  0  0  0
   -3.2928   -3.5223   12.4817 H   0  0  0  0  0  0  0  0  0  0  0  0
   -0.6400    1.4597   11.7649 H   0  0  0  0  0  0  0  0  0  0  0  0
   -1.2043   -0.0760   11.0235 H   0  0  0  0  0  0  0  0  0  0  0  0
   -2.2735    1.3673   11.0235 H   0  0  0  0  0  0  0  0  0  0  0  0
    4.8967    2.1480   10.9994 H   0  0  0  0  0  0  0  0  0  0  0  0
    4.1901    3.6073    9.1063 H   0  0  0  0  0  0  0  0  0  0  0  0
    1.8736    4.5263    9.0326 H   0  0  0  0  0  0  0  0  0  0  0  0
    0.9605    2.5281   12.7566 H   0  0  0  0  0  0  0  0  0  0  0  0
   -0.5158    3.6109   12.8530 H   0  0  0  0  0  0  0  0  0  0  0  0
   -3.1900    2.9436   10.9865 H   0  0  0  0  0  0  0  0  0  0  0  0
   -5.5056    3.8239   11.2549 H   0  0  0  0  0  0  0  0  0  0  0  0
   -3.9769    7.1120   13.6172 H   0  0  0  0  0  0  0  0  0  0  0  0
   -1.6640    6.2286   13.3480 H   0  0  0  0  0  0  0  0  0  0  0  0
   -8.1888    6.2139   11.7100 H   0  0  0  0  0  0  0  0  0  0  0  0
   -6.9825    5.3314   10.7360 H   0  0  0  0  0  0  0  0  0  0  0  0
  1  2  1  0
  1 10  2  0
  2  3  2  0
  3  4  1  0
  3  9  1  0
  4  5  1  0
  4  6  2  0
  5 11  1  0
  6  7  1  0
  7  8  2  0
  7 21  1  0
  8  9  1  0
  9 10  1  0
 11 12  2  0
 11 16  1  0
 12 13  1  0
 13 14  2  0
 14 15  1  0
 14 17  1  0
 15 16  2  0
 15 19  1  0
 17 18  1  0
 19 20  1  0
 21 22  2  0
 21 26  1  0
 22 23  1  0
 23 24  2  0
 24 25  1  0
 25 26  2  0
 25 27  1  0
 27 29  1  0
 27 28  2  0
 29 30  1  0
 30 35  1  0
 30 31  2  0
 31 32  1  0
 32 33  2  0
 33 36  1  0
 33 34  1  0
 34 35  2  0
 36 37  2  0
 36 38  1  0
  1 39  1  0
  5 40  1  0
  8 41  1  0
 10 42  1  0
 12 43  1  0
 13 44  1  0
 16 45  1  0
 18 46  1  0
 18 47  1  0
 18 48  1  0
 20 49  1  0
 20 50  1  0
 20 51  1  0
 22 52  1  0
 23 53  1  0
 24 54  1  0
 26 55  1  0
 29 56  1  0
 31 57  1  0
 32 58  1  0
 34 59  1  0
 35 60  1  0
 38 61  1  0
 38 62  1  0
M  END
>  <s_m_entry_id>  (1) 
29

>  <MODEL>  (1) 
1

>  <REMARK>  (1) 
 VINA RESULT:   -10.785      0.000      0.000
 INTER + INTRA:         -16.098
 INTER:                 -15.199
 INTRA:                  -0.898
 UNBOUND:                -0.898
  Name = /scratch/kmzp800/tmpvjv2o4v8/tmplsywba1y.pdb
  9 active torsions:
  status: ('A' for Active; 'I' for Inactive)
    1  A    between atoms: N2_5  and  C4_6
    2  A    between atoms: C7_9  and  O1_10
    3  A    between atoms: O1_10  and  C8_11
    4  A    between atoms: C9_12  and  O2_13
    5  A    between atoms: O2_13  and  C10_14
    6  A    between atoms: C12_17  and  C13_18
    7  A    between atoms: C17_22  and  C18_23
    8  A    between atoms: N4_25  and  C19_26
    9  A    between atoms: C22_29  and  C23_30
                            x       y       z     vdW  Elec       q    Type
                         _______ _______ _______ _____ _____    ______ ____

>  <TORSDO>  (1) 
F 7

>  <grid_id>  (1) 
syk-prepared

>  <grid_path>  (1) 
syk_vina.pdbqt

>  <grid_filename>  (1) 
syk_vina.pdbqt

>  <docking_score>  (1) 
-10.785

>  <compound_name>  (1) 
CHEMBL3264999

>  <index_string>  (1) 
28:0:0

>  <s_m_Source_Path>  (1) 
/projects/mai/users/kmzp800_harry/pmx_colab/docking_jobs/syk/vina_prep/output

>  <s_m_Source_File>  (1) 
ptp1b_docked_conformers.sdf

>  <i_m_Source_File_Index>  (1) 
29

$$$$
