22:0:0
     RDKit          3D

 37 39  0  0  1  0  0  0  0  0999 V2000
  -14.4399  -15.3205  -27.8306 C   0  0  0  0  0  0  0  0  0  0  0  0
  -14.9998  -15.9976  -26.7386 C   0  0  0  0  0  0  0  0  0  0  0  0
  -14.4481  -13.9281  -27.8450 C   0  0  0  0  0  0  0  0  0  0  0  0
  -15.6480  -15.3047  -25.6921 C   0  0  0  0  0  0  0  0  0  0  0  0
  -14.8482  -17.3673  -26.7040 N   0  0  0  0  0  0  0  0  0  0  0  0
  -15.0140  -13.2446  -26.7624 C   0  0  0  0  0  0  0  0  0  0  0  0
  -15.6544  -13.9028  -25.6992 C   0  0  0  0  0  0  0  0  0  0  0  0
  -16.2386  -16.1097  -24.5772 C   0  0  0  0  0  0  0  0  0  0  0  0
  -16.0482  -17.4335  -24.6802 N   0  0  0  0  0  0  0  0  0  0  0  0
  -16.8482  -15.5995  -23.6436 O   0  0  0  0  0  0  0  0  0  0  0  0
  -15.3434  -18.0534  -25.7222 C   0  0  0  0  0  0  0  0  0  0  0  0
  -15.1986  -19.5122  -25.7944 C   0  0  0  0  0  0  0  0  0  0  0  0
  -14.8482  -20.0934  -27.0293 C   0  0  0  0  0  0  0  0  0  0  0  0
  -14.7365  -21.4724  -27.1386 C   0  0  0  0  0  0  0  0  0  0  0  0
  -15.0146  -22.2948  -26.0501 C   0  0  0  0  0  0  0  0  0  0  0  0
  -15.3129  -21.7109  -24.7979 C   0  0  0  0  0  0  0  0  0  0  0  0
  -15.4027  -20.3198  -24.6632 C   0  0  0  0  0  0  0  0  0  0  0  0
  -14.9974  -23.7905  -26.2465 C   0  0  0  0  0  0  0  0  0  0  0  0
  -15.6482  -24.3727  -25.1723 O   0  0  0  0  0  0  0  0  0  0  0  0
  -14.8482  -11.5727  -26.7386 Cl  0  0  0  0  0  0  0  0  0  0  0  0
  -13.5487  -24.3014  -26.3386 C   0  0  0  0  0  0  0  0  0  0  0  0
  -15.8338  -24.2586  -27.4474 C   0  0  0  0  0  0  0  0  0  0  0  0
  -13.9676  -15.8667  -28.6336 H   0  0  0  0  0  0  0  0  0  0  0  0
  -13.9764  -13.3853  -28.6515 H   0  0  0  0  0  0  0  0  0  0  0  0
  -16.0955  -13.3419  -24.8866 H   0  0  0  0  0  0  0  0  0  0  0  0
  -16.5015  -18.0170  -23.9869 H   0  0  0  0  0  0  0  0  0  0  0  0
  -14.6581  -19.5043  -27.9154 H   0  0  0  0  0  0  0  0  0  0  0  0
  -14.4483  -21.8950  -28.0724 H   0  0  0  0  0  0  0  0  0  0  0  0
  -15.5025  -22.3251  -23.9360 H   0  0  0  0  0  0  0  0  0  0  0  0
  -15.6485  -19.8953  -23.7008 H   0  0  0  0  0  0  0  0  0  0  0  0
  -15.6483  -25.3128  -25.2743 H   0  0  0  0  0  0  0  0  0  0  0  0
  -13.0222  -23.8498  -27.1798 H   0  0  0  0  0  0  0  0  0  0  0  0
  -13.5077  -25.3817  -26.4766 H   0  0  0  0  0  0  0  0  0  0  0  0
  -12.9861  -24.0595  -25.4354 H   0  0  0  0  0  0  0  0  0  0  0  0
  -15.3840  -23.9470  -28.3809 H   0  0  0  0  0  0  0  0  0  0  0  0
  -15.9058  -25.3464  -27.4876 H   0  0  0  0  0  0  0  0  0  0  0  0
  -16.8482  -23.8594  -27.4097 H   0  0  0  0  0  0  0  0  0  0  0  0
  1  2  2  0
  1  3  1  0
  1 23  1  0
  2  4  1  0
  2  5  1  0
  3  6  2  0
  3 24  1  0
  4  7  2  0
  4  8  1  0
  5 11  2  0
  6  7  1  0
  6 20  1  0
  7 25  1  0
  8  9  1  0
  8 10  2  0
  9 11  1  0
  9 26  1  0
 11 12  1  0
 12 13  2  0
 12 17  1  0
 13 14  1  0
 13 27  1  0
 14 15  2  0
 14 28  1  0
 15 16  1  0
 15 18  1  0
 16 17  2  0
 16 29  1  0
 17 30  1  0
 18 19  1  0
 18 21  1  0
 18 22  1  0
 19 31  1  0
 21 32  1  0
 21 33  1  0
 21 34  1  0
 22 35  1  0
 22 36  1  0
 22 37  1  0
M  END
>  <s_m_entry_id>  (1) 
464

>  <Name>  (1) 
5e

>  <IC50[nM]>  (1) 
39

>  <s_m_Source_Path>  (1) 
/projects/mai/users/kmzp800_harry/pmx_colab/docking_jobs/tnks2

>  <s_m_Source_File>  (1) 
tnks2_lig.sdf

>  <i_m_Source_File_Index>  (1) 
23

>  <s_m_job_name>  (1) 
glide-dock_SP_tnks2_core_const

>  <r_i_docking_score>  (1) 
-10.2220847438227

>  <r_i_glide_gscore>  (1) 
-10.2220847438227

>  <r_i_glide_emodel>  (1) 
-41.7410101925433

>  <index_string>  (1) 
22:0:0

$$$$
