17:0:0
     RDKit          3D

 65 70  0  0  1  0  0  0  0  0999 V2000
   -4.6272   -3.1041   15.2110 C   0  0  0  0  0  0  0  0  0  0  0  0
   -3.9464   -2.1084   14.4542 O   0  0  0  0  0  0  0  0  0  0  0  0
   -2.5908   -1.9450   14.6528 C   0  0  0  0  0  0  0  0  0  0  0  0
   -1.8260   -2.7629   15.5165 C   0  0  0  0  0  0  0  0  0  0  0  0
   -0.4470   -2.5338   15.6943 C   0  0  0  0  0  0  0  0  0  0  0  0
    0.2046   -1.4890   15.0089 C   0  0  0  0  0  0  0  0  0  0  0  0
    1.5805   -1.3234   15.2554 N   0  0  0  0  0  0  0  0  0  0  0  0
    2.5295   -0.4293   14.7282 C   0  0  0  0  0  0  0  0  0  0  0  0
    2.1951    0.3949   13.7577 N   0  0  0  0  0  0  0  0  0  0  0  0
    3.1159    1.2778   13.2455 C   0  0  0  0  0  0  0  0  0  0  0  0
    4.4146    1.3120   13.7105 C   0  0  0  0  0  0  0  0  0  0  0  0
    4.7555    0.4875   14.7267 N   0  0  0  0  0  0  0  0  0  0  0  0
    5.9031    0.3888   15.4802 C   0  0  0  0  0  0  0  0  0  0  0  0
    5.6073   -0.4985   16.4880 C   0  0  0  0  0  0  0  0  0  0  0  0
    4.3616   -1.0642   16.3234 N   0  0  0  0  0  0  0  0  0  0  0  0
    3.8323   -0.4188   15.2939 C   0  0  0  0  0  0  0  0  0  0  0  0
    2.6451    2.2258   12.2031 C   0  0  0  0  0  0  0  0  0  0  0  0
    3.5628    2.7415   11.2557 C   0  0  0  0  0  0  0  0  0  0  0  0
    3.1531    3.6053   10.2236 C   0  0  0  0  0  0  0  0  0  0  0  0
    1.8045    3.9761   10.1146 C   0  0  0  0  0  0  0  0  0  0  0  0
    0.8643    3.5053   11.0531 C   0  0  0  0  0  0  0  0  0  0  0  0
    1.2902    2.6381   12.0943 C   0  0  0  0  0  0  0  0  0  0  0  0
   -0.5749    3.8769   10.8925 C   0  0  0  0  0  0  0  0  0  0  0  0
   -1.1298    3.6608    9.8179 O   0  0  0  0  0  0  0  0  0  0  0  0
   -1.1492    4.4512   11.9725 N   0  0  0  0  0  0  0  0  0  0  0  0
   -2.4710    4.9658   12.1150 C   0  0  0  0  0  0  0  0  0  0  0  0
   -3.4193    5.0022   11.0611 C   0  0  0  0  0  0  0  0  0  0  0  0
   -4.6946    5.5560   11.2597 C   0  0  0  0  0  0  0  0  0  0  0  0
   -5.0742    6.0690   12.5169 C   0  0  0  0  0  0  0  0  0  0  0  0
   -4.1454    6.0038   13.5800 C   0  0  0  0  0  0  0  0  0  0  0  0
   -2.8526    5.4782   13.3755 C   0  0  0  0  0  0  0  0  0  0  0  0
   -6.3875    6.6756   12.7098 C   0  0  0  0  0  0  0  0  0  0  0  0
   -7.1591    6.7977   13.8271 C   0  0  0  0  0  0  0  0  0  0  0  0
   -8.2877    7.5555   13.3975 C   0  0  0  0  0  0  0  0  0  0  0  0
   -8.2337    7.8660   12.1128 N   0  0  0  0  0  0  0  0  0  0  0  0
   -7.0770    7.3060   11.6979 N   0  0  0  0  0  0  0  0  0  0  0  0
   -0.5645   -0.6830   14.1303 C   0  0  0  0  0  0  0  0  0  0  0  0
   -1.9504   -0.9005   13.9491 C   0  0  0  0  0  0  0  0  0  0  0  0
   -2.7423   -0.1336   13.1166 O   0  0  0  0  0  0  0  0  0  0  0  0
   -2.1152    0.7760   12.2218 C   0  0  0  0  0  0  0  0  0  0  0  0
   -5.6909   -3.0930   14.9621 H   0  0  0  0  0  0  0  0  0  0  0  0
   -4.2525   -4.1043   14.9867 H   0  0  0  0  0  0  0  0  0  0  0  0
   -4.5431   -2.9185   16.2835 H   0  0  0  0  0  0  0  0  0  0  0  0
   -2.2792   -3.5694   16.0699 H   0  0  0  0  0  0  0  0  0  0  0  0
    0.1014   -3.1705   16.3758 H   0  0  0  0  0  0  0  0  0  0  0  0
    1.9570   -1.9256   15.9740 H   0  0  0  0  0  0  0  0  0  0  0  0
    5.1706    2.0074   13.3714 H   0  0  0  0  0  0  0  0  0  0  0  0
    6.7621    1.0004   15.2701 H   0  0  0  0  0  0  0  0  0  0  0  0
    6.1692   -0.7459   17.3699 H   0  0  0  0  0  0  0  0  0  0  0  0
    4.5990    2.4547   11.2960 H   0  0  0  0  0  0  0  0  0  0  0  0
    3.8779    3.9745    9.5094 H   0  0  0  0  0  0  0  0  0  0  0  0
    1.4990    4.6308    9.3101 H   0  0  0  0  0  0  0  0  0  0  0  0
    0.5581    2.2487   12.7897 H   0  0  0  0  0  0  0  0  0  0  0  0
   -0.5421    4.5832   12.7680 H   0  0  0  0  0  0  0  0  0  0  0  0
   -3.2034    4.6185   10.0767 H   0  0  0  0  0  0  0  0  0  0  0  0
   -5.3852    5.5826   10.4309 H   0  0  0  0  0  0  0  0  0  0  0  0
   -4.4069    6.3797   14.5593 H   0  0  0  0  0  0  0  0  0  0  0  0
   -2.1605    5.4545   14.2074 H   0  0  0  0  0  0  0  0  0  0  0  0
   -6.9529    6.4102   14.8147 H   0  0  0  0  0  0  0  0  0  0  0  0
   -9.1221    7.8933   13.9954 H   0  0  0  0  0  0  0  0  0  0  0  0
   -6.7698    7.3799   10.7377 H   0  0  0  0  0  0  0  0  0  0  0  0
   -0.0987    0.1241   13.5956 H   0  0  0  0  0  0  0  0  0  0  0  0
   -2.8715    1.2177   11.5718 H   0  0  0  0  0  0  0  0  0  0  0  0
   -1.6323    1.5912   12.7601 H   0  0  0  0  0  0  0  0  0  0  0  0
   -1.3863    0.2777   11.5806 H   0  0  0  0  0  0  0  0  0  0  0  0
  1  2  1  0
  1 41  1  0
  1 42  1  0
  1 43  1  0
  2  3  1  0
  3  4  2  0
  3 38  1  0
  4  5  1  0
  4 44  1  0
  5  6  2  0
  5 45  1  0
  6  7  1  0
  6 37  1  0
  7  8  1  0
  7 46  1  0
  8  9  2  0
  8 16  1  0
  9 10  1  0
 10 11  2  0
 10 17  1  0
 11 12  1  0
 11 47  1  0
 12 13  1  0
 12 16  1  0
 13 14  2  0
 13 48  1  0
 14 15  1  0
 14 49  1  0
 15 16  2  0
 17 18  2  0
 17 22  1  0
 18 19  1  0
 18 50  1  0
 19 20  2  0
 19 51  1  0
 20 21  1  0
 20 52  1  0
 21 22  2  0
 21 23  1  0
 22 53  1  0
 23 24  2  0
 23 25  1  0
 25 26  1  0
 25 54  1  0
 26 27  2  0
 26 31  1  0
 27 28  1  0
 27 55  1  0
 28 29  2  0
 28 56  1  0
 29 30  1  0
 29 32  1  0
 30 31  2  0
 30 57  1  0
 31 58  1  0
 32 36  1  0
 32 33  2  0
 33 34  1  0
 33 59  1  0
 34 60  1  0
 34 35  2  0
 35 36  1  0
 36 61  1  0
 37 38  2  0
 37 62  1  0
 38 39  1  0
 39 40  1  0
 40 63  1  0
 40 64  1  0
 40 65  1  0
M  END
>  <s_m_entry_id>  (1) 
1005

>  <IC50[nM]>  (1) 
11.7

>  <s_m_Source_Path>  (1) 
/projects/mai/users/kmzp800_harry/pmx_colab/docking_jobs/syk

>  <s_m_Source_File>  (1) 
tnks2_lig.sdf

>  <i_m_Source_File_Index>  (1) 
18

>  <s_m_job_name>  (1) 
glide-dock_SP_tnks2_core_const

>  <r_i_docking_score>  (1) 
-7.62200763622022

>  <r_i_glide_gscore>  (1) 
-7.62200763622022

>  <r_i_glide_emodel>  (1) 
-66.4844228879019

>  <index_string>  (1) 
17:0:0

$$$$
