7:0:0
     RDKit          3D

 37 39  0  0  1  0  0  0  0  0999 V2000
  -14.4660  -14.9160  -27.6340 C   0  0  0  0  0  0  0  0  0  0  0  0
  -14.9030  -15.7730  -26.6220 C   0  0  0  0  0  0  0  0  0  0  0  0
  -14.6660  -13.5400  -27.4980 C   0  0  0  0  0  0  0  0  0  0  0  0
  -15.5960  -15.2740  -25.5110 C   0  0  0  0  0  0  0  0  0  0  0  0
  -14.6010  -17.1360  -26.7160 N   0  0  0  0  0  0  0  0  0  0  0  0
  -15.2910  -13.0320  -26.3590 C   0  0  0  0  0  0  0  0  0  0  0  0
  -15.7540  -13.9000  -25.3640 C   0  0  0  0  0  0  0  0  0  0  0  0
  -16.1260  -16.2700  -24.4870 C   0  0  0  0  0  0  0  0  0  0  0  0
  -15.7150  -17.5220  -24.7500 N   0  0  0  0  0  0  0  0  0  0  0  0
  -16.8750  -16.0690  -23.5300 O   0  0  0  0  0  0  0  0  0  0  0  0
  -14.9710  -17.9800  -25.8100 C   0  0  0  0  0  0  0  0  0  0  0  0
  -16.4640  -13.2700  -23.9440 Cl  0  0  0  0  0  0  0  0  0  0  0  0
  -14.6710  -19.4080  -25.8600 C   0  0  0  0  0  0  0  0  0  0  0  0
  -14.9880  -20.1260  -27.0150 C   0  0  0  0  0  0  0  0  0  0  0  0
  -14.7170  -21.4780  -27.0850 C   0  0  0  0  0  0  0  0  0  0  0  0
  -14.1380  -22.1280  -25.9970 C   0  0  0  0  0  0  0  0  0  0  0  0
  -13.8080  -21.4130  -24.8450 C   0  0  0  0  0  0  0  0  0  0  0  0
  -14.0800  -20.0620  -24.7700 C   0  0  0  0  0  0  0  0  0  0  0  0
  -13.7930  -23.6000  -26.0950 C   0  0  0  0  0  0  0  0  0  0  0  0
  -12.7560  -23.8750  -27.1570 C   0  0  0  0  0  0  0  0  0  0  0  0
  -15.0810  -24.3930  -26.2480 C   0  0  0  0  0  0  0  0  0  0  0  0
  -13.1120  -24.1090  -24.9890 O   0  0  0  0  0  0  0  0  0  0  0  0
  -13.9696  -15.3199  -28.5287 H   0  0  0  0  0  0  0  0  0  0  0  0
  -14.3299  -12.8556  -28.2909 H   0  0  0  0  0  0  0  0  0  0  0  0
  -15.4202  -11.9458  -26.2427 H   0  0  0  0  0  0  0  0  0  0  0  0
  -15.9963  -18.2359  -24.0628 H   0  0  0  0  0  0  0  0  0  0  0  0
  -15.4540  -19.6140  -27.8698 H   0  0  0  0  0  0  0  0  0  0  0  0
  -14.9579  -22.0413  -27.9986 H   0  0  0  0  0  0  0  0  0  0  0  0
  -13.3312  -21.9261  -23.9968 H   0  0  0  0  0  0  0  0  0  0  0  0
  -13.8336  -19.4998  -23.8572 H   0  0  0  0  0  0  0  0  0  0  0  0
  -11.7989  -24.1288  -26.6779 H   0  0  0  0  0  0  0  0  0  0  0  0
  -13.0870  -24.7164  -27.7835 H   0  0  0  0  0  0  0  0  0  0  0  0
  -12.6265  -22.9801  -27.7835 H   0  0  0  0  0  0  0  0  0  0  0  0
  -15.4805  -24.6390  -25.2531 H   0  0  0  0  0  0  0  0  0  0  0  0
  -15.8181  -23.7921  -26.8008 H   0  0  0  0  0  0  0  0  0  0  0  0
  -14.8763  -25.3217  -26.8008 H   0  0  0  0  0  0  0  0  0  0  0  0
  -13.5436  -23.7864  -24.1585 H   0  0  0  0  0  0  0  0  0  0  0  0
  1  3  2  0
  1  2  1  0
  2  4  2  0
  2  5  1  0
  3  6  1  0
  4  7  1  0
  4  8  1  0
  5 11  2  0
  6  7  2  0
  7 12  1  0
  8 10  2  0
  8  9  1  0
  9 11  1  0
 11 13  1  0
 13 18  1  0
 13 14  2  0
 14 15  1  0
 15 16  2  0
 16 17  1  0
 16 19  1  0
 17 18  2  0
 19 22  1  0
 19 20  1  0
 19 21  1  0
  1 23  1  0
  3 24  1  0
  6 25  1  0
  9 26  1  0
 14 27  1  0
 15 28  1  0
 17 29  1  0
 18 30  1  0
 20 31  1  0
 20 32  1  0
 20 33  1  0
 21 34  1  0
 21 35  1  0
 21 36  1  0
 22 37  1  0
M  END
>  <s_m_entry_id>  (1) 
2335

>  <MODEL>  (1) 
1

>  <REMARK>  (1) 
 VINA RESULT:    -9.791      0.000      0.000
 INTER + INTRA:         -11.675
 INTER:                 -11.222
 INTRA:                  -0.454
 UNBOUND:                -0.454
  Name = 5c
  5 active torsions:
  status: ('A' for Active; 'I' for Inactive)
    1  A    between atoms: C_11  and  C_12
    2  A    between atoms: C_15  and  C_18
    3  A    between atoms: C_18  and  O_19
    4  A    between atoms: C_18  and  C_20
    5  A    between atoms: C_18  and  C_21
                            x       y       z     vdW  Elec       q    Type
                         _______ _______ _______ _____ _____    ______ ____

>  <TORSDO>  (1) 
F 3

>  <s_m_Source_Path>  (1) 
/projects/mai/users/kmzp800_harry/pmx_colab/docking_jobs/tnks2/vina_prep/output

>  <s_m_Source_File>  (1) 
tnks_naive_vina.sdf

>  <i_m_Source_File_Index>  (1) 
8

>  <index_string>  (1) 
7:0:0

$$$$
