21:0:0
     RDKit          3D

 49 51  0  0  1  0  0  0  0  0999 V2000
   38.9520   36.3499   15.8893 F   0  0  0  0  0  0  0  0  0  0  0  0
   37.9227   36.0830   16.7109 C   0  0  0  0  0  0  0  0  0  0  0  0
   36.6663   35.7692   16.1693 C   0  0  0  0  0  0  0  0  0  0  0  0
   35.5767   35.5493   17.0273 C   0  0  0  0  0  0  0  0  0  0  0  0
   34.3918   35.1493   16.5068 F   0  0  0  0  0  0  0  0  0  0  0  0
   35.7220   35.6905   18.4232 C   0  0  0  0  0  0  0  0  0  0  0  0
   37.0041   35.9628   18.9631 C   0  0  0  0  0  0  0  0  0  0  0  0
   38.1040   36.1455   18.1042 C   0  0  0  0  0  0  0  0  0  0  0  0
   34.6107   35.4930   19.2079 O   0  0  0  0  0  0  0  0  0  0  0  0
   34.5657   36.0710   20.4473 C   0  0  0  0  0  0  0  0  0  0  0  0
   34.5421   37.4121   20.5850 C   0  0  0  0  0  0  0  0  0  0  0  0
   34.5519   35.1713   21.6015 C   0  0  0  0  0  0  0  0  0  0  0  0
   34.5415   33.9492   21.4505 O   0  0  0  0  0  0  0  0  0  0  0  0
   34.5850   35.7555   22.8347 N   0  0  0  0  0  0  0  0  0  0  0  0
   34.6574   34.9090   24.0382 C   0  0  0  0  0  0  0  0  0  0  0  0
   34.5176   37.1742   23.0342 C   0  0  0  0  0  0  0  0  0  0  0  0
   34.5005   38.0200   21.9069 C   0  0  0  0  0  0  0  0  0  0  0  0
   34.4445   37.7128   24.2682 N   0  0  0  0  0  0  0  0  0  0  0  0
   34.2995   39.0312   24.3841 C   0  0  0  0  0  0  0  0  0  0  0  0
   34.3092   39.9127   23.3831 N   0  0  0  0  0  0  0  0  0  0  0  0
   34.4108   39.4076   22.1362 C   0  0  0  0  0  0  0  0  0  0  0  0
   34.0787   39.5492   25.6475 N   0  0  0  0  0  0  0  0  0  0  0  0
   33.5726   38.7985   26.8035 C   0  0  0  0  0  0  0  0  0  0  0  0
   34.6704   37.9339   27.4719 C   0  0  0  0  0  0  0  0  0  0  0  0
   34.2884   37.4505   28.8863 C   0  0  0  0  0  0  0  0  0  0  0  0
   35.3521   36.7494   29.4888 O   0  0  0  0  0  0  0  0  0  0  0  0
   32.2756   38.0002   26.4929 C   0  0  0  0  0  0  0  0  0  0  0  0
   31.0266   38.8625   26.3053 C   0  0  0  0  0  0  0  0  0  0  0  0
   31.0074   39.5492   25.0709 O   0  0  0  0  0  0  0  0  0  0  0  0
   36.5384   35.6997   15.0990 H   0  0  0  0  0  0  0  0  0  0  0  0
   37.1592   36.0334   20.0300 H   0  0  0  0  0  0  0  0  0  0  0  0
   39.0835   36.3496   18.5111 H   0  0  0  0  0  0  0  0  0  0  0  0
   34.5554   38.0615   19.7218 H   0  0  0  0  0  0  0  0  0  0  0  0
   34.8836   33.8585   23.8453 H   0  0  0  0  0  0  0  0  0  0  0  0
   35.4369   35.2708   24.7108 H   0  0  0  0  0  0  0  0  0  0  0  0
   33.7086   34.9473   24.5756 H   0  0  0  0  0  0  0  0  0  0  0  0
   34.3957   40.1139   21.3189 H   0  0  0  0  0  0  0  0  0  0  0  0
   33.9346   40.5551   25.6753 H   0  0  0  0  0  0  0  0  0  0  0  0
   33.3079   39.5657   27.5321 H   0  0  0  0  0  0  0  0  0  0  0  0
   35.5857   38.5233   27.5450 H   0  0  0  0  0  0  0  0  0  0  0  0
   34.9107   37.0759   26.8440 H   0  0  0  0  0  0  0  0  0  0  0  0
   33.4305   36.7808   28.8688 H   0  0  0  0  0  0  0  0  0  0  0  0
   34.0262   38.2976   29.5208 H   0  0  0  0  0  0  0  0  0  0  0  0
   35.5863   36.0151   28.9358 H   0  0  0  0  0  0  0  0  0  0  0  0
   32.3883   37.3152   25.6544 H   0  0  0  0  0  0  0  0  0  0  0  0
   32.0466   37.3530   27.3363 H   0  0  0  0  0  0  0  0  0  0  0  0
   30.1517   38.2204   26.3516 H   0  0  0  0  0  0  0  0  0  0  0  0
   30.9519   39.5678   27.1284 H   0  0  0  0  0  0  0  0  0  0  0  0
   30.2655   40.1402   25.0788 H   0  0  0  0  0  0  0  0  0  0  0  0
  1  2  1  0
  2  8  2  0
  2  3  1  0
  3  4  2  0
  3 30  1  0
  4  5  1  0
  4  6  1  0
  6  7  2  0
  6  9  1  0
  7  8  1  0
  7 31  1  0
  8 32  1  0
  9 10  1  0
 10 11  2  0
 10 12  1  0
 11 17  1  0
 11 33  1  0
 12 13  2  0
 12 14  1  0
 14 15  1  0
 14 16  1  0
 15 34  1  0
 15 35  1  0
 15 36  1  0
 16 17  2  0
 16 18  1  0
 17 21  1  0
 18 19  2  0
 19 20  1  0
 19 22  1  0
 20 21  2  0
 21 37  1  0
 22 23  1  0
 22 38  1  0
 23 24  1  0
 23 27  1  0
 23 39  1  0
 24 25  1  0
 24 40  1  0
 24 41  1  0
 25 26  1  0
 25 42  1  0
 25 43  1  0
 26 44  1  0
 27 28  1  0
 27 45  1  0
 27 46  1  0
 28 29  1  0
 28 47  1  0
 28 48  1  0
 29 49  1  0
M  END
>  <s_m_entry_id>  (1) 
737

>  <i_f3d_flags>  (1) 
0

>  <r_lp_tautomer_probability>  (1) 
1

>  <r_epik_Ionization_Penalty>  (1) 
  0.0000

>  <r_epik_State_Penalty>  (1) 
  0.0000

>  <i_epik_Tot_Q>  (1) 
0

>  <s_m_job_name>  (1) 
glide-dock_SP_p38_all_ligs_no_cons_10_poses

>  <r_i_docking_score>  (1) 
-8.05029659370594

>  <r_i_glide_gscore>  (1) 
-8.05029659370594

>  <r_i_glide_emodel>  (1) 
-67.8528112987822

>  <index_string>  (1) 
21:0:0

$$$$
