17:0:0
     RDKit          3D

 37 39  0  0  1  0  0  0  0  0999 V2000
  -14.6060  -14.7380  -27.4520 C   0  0  0  0  0  0  0  0  0  0  0  0
  -15.0380  -15.6210  -26.4620 C   0  0  0  0  0  0  0  0  0  0  0  0
  -14.8270  -13.3670  -27.2980 C   0  0  0  0  0  0  0  0  0  0  0  0
  -15.7520  -15.1410  -25.3600 C   0  0  0  0  0  0  0  0  0  0  0  0
  -14.7200  -16.9810  -26.5770 N   0  0  0  0  0  0  0  0  0  0  0  0
  -15.5040  -12.8900  -26.1730 C   0  0  0  0  0  0  0  0  0  0  0  0
  -15.9840  -13.7770  -25.2050 C   0  0  0  0  0  0  0  0  0  0  0  0
  -16.2530  -16.1420  -24.3480 C   0  0  0  0  0  0  0  0  0  0  0  0
  -15.7940  -17.3940  -24.5970 N   0  0  0  0  0  0  0  0  0  0  0  0
  -17.0170  -15.9080  -23.4160 O   0  0  0  0  0  0  0  0  0  0  0  0
  -15.0670  -17.8450  -25.6780 C   0  0  0  0  0  0  0  0  0  0  0  0
  -14.7650  -19.2860  -25.7830 C   0  0  0  0  0  0  0  0  0  0  0  0
  -14.2130  -20.0090  -24.7170 C   0  0  0  0  0  0  0  0  0  0  0  0
  -13.9210  -21.3610  -24.8610 C   0  0  0  0  0  0  0  0  0  0  0  0
  -14.1690  -22.0090  -26.0740 C   0  0  0  0  0  0  0  0  0  0  0  0
  -14.7420  -21.2950  -27.1270 C   0  0  0  0  0  0  0  0  0  0  0  0
  -15.0390  -19.9500  -26.9830 C   0  0  0  0  0  0  0  0  0  0  0  0
  -13.6840  -23.4420  -26.2910 C   0  0  0  0  0  0  0  0  0  0  0  0
  -12.7430  -23.6060  -27.4950 C   0  0  0  0  0  0  0  0  0  0  0  0
  -14.9270  -24.3330  -26.3420 C   0  0  0  0  0  0  0  0  0  0  0  0
  -12.8910  -23.9400  -25.2440 O   0  0  0  0  0  0  0  0  0  0  0  0
  -14.0945  -15.1188  -28.3483 H   0  0  0  0  0  0  0  0  0  0  0  0
  -14.4677  -12.6629  -28.0630 H   0  0  0  0  0  0  0  0  0  0  0  0
  -15.6605  -11.8084  -26.0479 H   0  0  0  0  0  0  0  0  0  0  0  0
  -16.5380  -13.4020  -24.3318 H   0  0  0  0  0  0  0  0  0  0  0  0
  -16.0186  -18.1019  -23.8834 H   0  0  0  0  0  0  0  0  0  0  0  0
  -14.0095  -19.5043  -23.7610 H   0  0  0  0  0  0  0  0  0  0  0  0
  -13.4933  -21.9223  -24.0172 H   0  0  0  0  0  0  0  0  0  0  0  0
  -14.9593  -21.8038  -28.0778 H   0  0  0  0  0  0  0  0  0  0  0  0
  -15.4942  -19.3994  -27.8194 H   0  0  0  0  0  0  0  0  0  0  0  0
  -11.7181  -23.7846  -27.1377 H   0  0  0  0  0  0  0  0  0  0  0  0
  -13.0729  -24.4602  -28.1045 H   0  0  0  0  0  0  0  0  0  0  0  0
  -12.7645  -22.6906  -28.1045 H   0  0  0  0  0  0  0  0  0  0  0  0
  -15.2529  -24.5666  -25.3177 H   0  0  0  0  0  0  0  0  0  0  0  0
  -15.7341  -23.8065  -26.8725 H   0  0  0  0  0  0  0  0  0  0  0  0
  -14.6875  -25.2664  -26.8725 H   0  0  0  0  0  0  0  0  0  0  0  0
  -13.2939  -23.6870  -24.3758 H   0  0  0  0  0  0  0  0  0  0  0  0
  1  3  2  0
  1  2  1  0
  2  4  2  0
  2  5  1  0
  3  6  1  0
  4  7  1  0
  4  8  1  0
  5 11  2  0
  6  7  2  0
  8 10  2  0
  8  9  1  0
  9 11  1  0
 11 12  1  0
 12 13  2  0
 12 17  1  0
 13 14  1  0
 14 15  2  0
 15 16  1  0
 15 18  1  0
 16 17  2  0
 18 21  1  0
 18 19  1  0
 18 20  1  0
  1 22  1  0
  3 23  1  0
  6 24  1  0
  7 25  1  0
  9 26  1  0
 13 27  1  0
 14 28  1  0
 16 29  1  0
 17 30  1  0
 19 31  1  0
 19 32  1  0
 19 33  1  0
 20 34  1  0
 20 35  1  0
 20 36  1  0
 21 37  1  0
M  END
>  <s_m_entry_id>  (1) 
2345

>  <MODEL>  (1) 
1

>  <REMARK>  (1) 
 VINA RESULT:   -11.183      0.000      0.000
 INTER + INTRA:         -13.242
 INTER:                 -12.817
 INTRA:                  -0.425
 UNBOUND:                -0.425
  Name = 5a
  5 active torsions:
  status: ('A' for Active; 'I' for Inactive)
    1  A    between atoms: C_11  and  C_12
    2  A    between atoms: C_15  and  C_18
    3  A    between atoms: C_18  and  O_19
    4  A    between atoms: C_18  and  C_20
    5  A    between atoms: C_18  and  C_21
                            x       y       z     vdW  Elec       q    Type
                         _______ _______ _______ _____ _____    ______ ____

>  <TORSDO>  (1) 
F 3

>  <s_m_Source_Path>  (1) 
/projects/mai/users/kmzp800_harry/pmx_colab/docking_jobs/tnks2/vina_prep/output

>  <s_m_Source_File>  (1) 
tnks_naive_vina.sdf

>  <i_m_Source_File_Index>  (1) 
18

>  <index_string>  (1) 
17:0:0

$$$$
