18:0:0
     RDKit          3D

 46 49  0  0  1  0  0  0  0  0999 V2000
  -14.4402  -14.7813  -27.6651 C   0  0  0  0  0  0  0  0  0  0  0  0
  -15.0369  -15.6119  -26.6857 C   0  0  0  0  0  0  0  0  0  0  0  0
  -14.5271  -13.3978  -27.5652 C   0  0  0  0  0  0  0  0  0  0  0  0
  -15.7653  -15.0228  -25.6240 C   0  0  0  0  0  0  0  0  0  0  0  0
  -14.8482  -17.0000  -26.7391 N   0  0  0  0  0  0  0  0  0  0  0  0
  -15.2484  -12.8277  -26.5245 C   0  0  0  0  0  0  0  0  0  0  0  0
  -15.8813  -13.6180  -25.5449 C   0  0  0  0  0  0  0  0  0  0  0  0
  -16.3803  -15.9463  -24.6109 C   0  0  0  0  0  0  0  0  0  0  0  0
  -16.1297  -17.2460  -24.8140 N   0  0  0  0  0  0  0  0  0  0  0  0
  -17.0604  -15.5727  -23.6620 O   0  0  0  0  0  0  0  0  0  0  0  0
  -15.3735  -17.7857  -25.8491 C   0  0  0  0  0  0  0  0  0  0  0  0
  -15.2087  -19.2609  -25.9354 C   0  0  0  0  0  0  0  0  0  0  0  0
  -15.4459  -20.0918  -24.8192 C   0  0  0  0  0  0  0  0  0  0  0  0
  -15.2325  -21.4816  -24.9089 C   0  0  0  0  0  0  0  0  0  0  0  0
  -14.7757  -22.0561  -26.1128 C   0  0  0  0  0  0  0  0  0  0  0  0
  -14.5649  -21.2183  -27.2237 C   0  0  0  0  0  0  0  0  0  0  0  0
  -14.7774  -19.8416  -27.1405 C   0  0  0  0  0  0  0  0  0  0  0  0
  -13.6458  -15.3086  -28.8243 C   0  0  0  0  0  0  0  0  0  0  0  0
  -15.3253  -11.4997  -26.4973 F   0  0  0  0  0  0  0  0  0  0  0  0
  -14.4921  -23.5505  -26.2051 C   0  0  0  0  0  0  0  0  0  0  0  0
  -15.5024  -24.2570  -27.1295 C   0  0  0  0  0  0  0  0  0  0  0  0
  -15.1639  -25.7433  -27.3155 C   0  0  0  0  0  0  0  0  0  0  0  0
  -13.7806  -25.9099  -27.8079 N   0  0  0  0  0  0  0  0  0  0  0  0
  -12.7874  -25.3279  -26.8839 C   0  0  0  0  0  0  0  0  0  0  0  0
  -13.0476  -23.8265  -26.6783 C   0  0  0  0  0  0  0  0  0  0  0  0
  -14.0565  -12.7556  -28.2984 H   0  0  0  0  0  0  0  0  0  0  0  0
  -16.4375  -13.1530  -24.7399 H   0  0  0  0  0  0  0  0  0  0  0  0
  -16.5688  -17.8859  -24.1695 H   0  0  0  0  0  0  0  0  0  0  0  0
  -15.7795  -19.6777  -23.8794 H   0  0  0  0  0  0  0  0  0  0  0  0
  -15.4102  -22.1004  -24.0414 H   0  0  0  0  0  0  0  0  0  0  0  0
  -14.1933  -21.5746  -28.1641 H   0  0  0  0  0  0  0  0  0  0  0  0
  -14.5854  -19.2340  -28.0129 H   0  0  0  0  0  0  0  0  0  0  0  0
  -13.6958  -16.3727  -28.7823 H   0  0  0  0  0  0  0  0  0  0  0  0
  -14.0482  -14.9769  -29.7779 H   0  0  0  0  0  0  0  0  0  0  0  0
  -12.6045  -15.0125  -28.7826 H   0  0  0  0  0  0  0  0  0  0  0  0
  -14.5997  -23.9673  -25.2025 H   0  0  0  0  0  0  0  0  0  0  0  0
  -16.5090  -24.1513  -26.7269 H   0  0  0  0  0  0  0  0  0  0  0  0
  -15.5108  -23.7712  -28.1036 H   0  0  0  0  0  0  0  0  0  0  0  0
  -15.2825  -26.2777  -26.3727 H   0  0  0  0  0  0  0  0  0  0  0  0
  -15.8547  -26.2058  -28.0195 H   0  0  0  0  0  0  0  0  0  0  0  0
  -13.5856  -26.8961  -27.9202 H   0  0  0  0  0  0  0  0  0  0  0  0
  -12.8473  -25.8607  -25.9385 H   0  0  0  0  0  0  0  0  0  0  0  0
  -11.7812  -25.4906  -27.2754 H   0  0  0  0  0  0  0  0  0  0  0  0
  -12.8503  -23.3160  -27.6194 H   0  0  0  0  0  0  0  0  0  0  0  0
  -12.3380  -23.4210  -25.9548 H   0  0  0  0  0  0  0  0  0  0  0  0
  -13.6968  -25.4525  -28.7045 H   0  0  0  0  0  0  0  0  0  0  0  0
  1  2  2  0
  1  3  1  0
  1 18  1  0
  2  4  1  0
  2  5  1  0
  3  6  2  0
  3 26  1  0
  4  7  2  0
  4  8  1  0
  5 11  2  0
  6  7  1  0
  6 19  1  0
  7 27  1  0
  8  9  1  0
  8 10  2  0
  9 11  1  0
  9 28  1  0
 11 12  1  0
 12 13  2  0
 12 17  1  0
 13 14  1  0
 13 29  1  0
 14 15  2  0
 14 30  1  0
 15 16  1  0
 15 20  1  0
 16 17  2  0
 16 31  1  0
 17 32  1  0
 18 33  1  0
 18 34  1  0
 18 35  1  0
 20 21  1  0
 20 25  1  0
 20 36  1  0
 21 22  1  0
 21 37  1  0
 21 38  1  0
 22 23  1  0
 22 39  1  0
 22 40  1  0
 23 24  1  0
 23 41  1  0
 23 46  1  0
 24 25  1  0
 24 42  1  0
 24 43  1  0
 25 44  1  0
 25 45  1  0
M  CHG  1  23   1
M  END
>  <s_m_entry_id>  (1) 
515

>  <Name>  (1) 
8d

>  <IC50[nM]>  (1) 
0.7

>  <s_m_Source_Path>  (1) 
/projects/mai/users/kmzp800_harry/pmx_colab/docking_jobs/tnks2

>  <s_m_Source_File>  (1) 
tnks2_lig.sdf

>  <i_m_Source_File_Index>  (1) 
4

>  <s_m_job_name>  (1) 
glide-dock_SP_tnks_mcs_fallabck

>  <r_i_docking_score>  (1) 
-9.77384938848662

>  <r_i_glide_gscore>  (1) 
-9.77384938848662

>  <r_i_glide_emodel>  (1) 
-31.3972926334697

>  <index_string>  (1) 
18:0:0

$$$$
