6:0:0
     RDKit          3D

 36 38  0  0  1  0  0  0  0  0999 V2000
  -15.0740  -17.8210  -25.7210 C   0  0  0  0  0  0  0  0  0  0  0  0
  -15.7990  -17.3240  -24.6490 N   0  0  0  0  0  0  0  0  0  0  0  0
  -16.1460  -16.0400  -24.3700 C   0  0  0  0  0  0  0  0  0  0  0  0
  -14.6910  -16.9820  -26.6270 N   0  0  0  0  0  0  0  0  0  0  0  0
  -14.9410  -15.6070  -26.5190 C   0  0  0  0  0  0  0  0  0  0  0  0
  -15.6390  -15.0770  -25.4240 C   0  0  0  0  0  0  0  0  0  0  0  0
  -15.8460  -13.6970  -25.3220 C   0  0  0  0  0  0  0  0  0  0  0  0
  -15.3530  -12.8580  -26.3280 C   0  0  0  0  0  0  0  0  0  0  0  0
  -14.6720  -13.3900  -27.4230 C   0  0  0  0  0  0  0  0  0  0  0  0
  -14.4670  -14.7660  -27.5240 C   0  0  0  0  0  0  0  0  0  0  0  0
  -16.8120  -15.7500  -23.3730 O   0  0  0  0  0  0  0  0  0  0  0  0
  -15.5330  -11.5210  -26.2540 F   0  0  0  0  0  0  0  0  0  0  0  0
  -14.7710  -19.2690  -25.7960 C   0  0  0  0  0  0  0  0  0  0  0  0
  -14.1900  -19.9370  -24.7110 N   0  0  0  0  0  0  0  0  0  0  0  0
  -15.0440  -19.9950  -26.9660 C   0  0  0  0  0  0  0  0  0  0  0  0
  -13.8940  -21.2900  -24.7970 C   0  0  0  0  0  0  0  0  0  0  0  0
  -14.7750  -21.3580  -27.0380 C   0  0  0  0  0  0  0  0  0  0  0  0
  -14.2010  -22.0270  -25.9520 C   0  0  0  0  0  0  0  0  0  0  0  0
  -13.8540  -23.5330  -26.0370 C   0  0  0  0  0  0  0  0  0  0  0  0
  -12.9120  -23.7630  -27.2390 C   0  0  0  0  0  0  0  0  0  0  0  0
  -15.1760  -24.2970  -26.1680 C   0  0  0  0  0  0  0  0  0  0  0  0
  -13.2780  -23.9600  -24.7840 O   0  0  0  0  0  0  0  0  0  0  0  0
  -16.1199  -18.0270  -23.9680 H   0  0  0  0  0  0  0  0  0  0  0  0
  -16.3890  -13.2770  -24.4625 H   0  0  0  0  0  0  0  0  0  0  0  0
  -14.2948  -12.7212  -28.2106 H   0  0  0  0  0  0  0  0  0  0  0  0
  -13.9348  -15.1844  -28.3910 H   0  0  0  0  0  0  0  0  0  0  0  0
  -15.4760  -19.4798  -27.8366 H   0  0  0  0  0  0  0  0  0  0  0  0
  -13.4110  -21.7933  -23.9465 H   0  0  0  0  0  0  0  0  0  0  0  0
  -15.0156  -21.9140  -27.9562 H   0  0  0  0  0  0  0  0  0  0  0  0
  -11.9042  -24.0091  -26.8732 H   0  0  0  0  0  0  0  0  0  0  0  0
  -13.2935  -24.5944  -27.8500 H   0  0  0  0  0  0  0  0  0  0  0  0
  -12.8674  -22.8494  -27.8500 H   0  0  0  0  0  0  0  0  0  0  0  0
  -15.5691  -24.5242  -25.1660 H   0  0  0  0  0  0  0  0  0  0  0  0
  -15.9033  -23.6800  -26.7160 H   0  0  0  0  0  0  0  0  0  0  0  0
  -15.0045  -25.2352  -26.7160 H   0  0  0  0  0  0  0  0  0  0  0  0
  -13.7971  -23.5752  -24.0340 H   0  0  0  0  0  0  0  0  0  0  0  0
  1  2  1  0
  1  4  2  0
  1 13  1  0
  2  3  1  0
  3 11  2  0
  3  6  1  0
  4  5  1  0
  5  6  2  0
  5 10  1  0
  6  7  1  0
  7  8  2  0
  8 12  1  0
  8  9  1  0
  9 10  2  0
 13 14  2  0
 13 15  1  0
 14 16  1  0
 15 17  2  0
 16 18  2  0
 17 18  1  0
 18 19  1  0
 19 22  1  0
 19 20  1  0
 19 21  1  0
  2 23  1  0
  7 24  1  0
  9 25  1  0
 10 26  1  0
 15 27  1  0
 16 28  1  0
 17 29  1  0
 20 30  1  0
 20 31  1  0
 20 32  1  0
 21 33  1  0
 21 34  1  0
 21 35  1  0
 22 36  1  0
M  END
>  <s_m_entry_id>  (1) 
2334

>  <MODEL>  (1) 
1

>  <REMARK>  (1) 
 VINA RESULT:   -10.536      0.000      0.000
 INTER + INTRA:         -12.424
 INTER:                 -12.076
 INTRA:                  -0.348
 UNBOUND:                -0.348
  Name = 7
  5 active torsions:
  status: ('A' for Active; 'I' for Inactive)
    1  A    between atoms: C_1  and  C_4
    2  A    between atoms: C_7  and  C_18
    3  A    between atoms: C_18  and  O_19
    4  A    between atoms: C_18  and  C_21
    5  A    between atoms: C_18  and  C_22
                            x       y       z     vdW  Elec       q    Type
                         _______ _______ _______ _____ _____    ______ ____

>  <TORSDO>  (1) 
F 3

>  <s_m_Source_Path>  (1) 
/projects/mai/users/kmzp800_harry/pmx_colab/docking_jobs/tnks2/vina_prep/output

>  <s_m_Source_File>  (1) 
tnks_naive_vina.sdf

>  <i_m_Source_File_Index>  (1) 
7

>  <index_string>  (1) 
6:0:0

$$$$
