18:0:0
     RDKit          3D

 37 38  0  0  1  0  0  0  0  0999 V2000
   39.3976   17.6990   12.6543 O   0  0  0  0  0  0  0  0  0  0  0  0
   40.5785   17.2800   12.6828 C   0  0  0  0  0  0  0  0  0  0  0  0
   41.4182   17.4841   11.7735 O   0  0  0  0  0  0  0  0  0  0  0  0
   41.0046   16.4856   13.9265 C   0  0  0  0  0  0  0  0  0  0  0  0
   42.1734   15.7070   13.6830 O   0  0  0  0  0  0  0  0  0  0  0  0
   42.5435   14.9169   14.7203 C   0  0  0  0  0  0  0  0  0  0  0  0
   42.1494   13.5683   14.8905 C   0  0  0  0  0  0  0  0  0  0  0  0
   40.9835   12.7632   13.6555 Br  0  0  0  0  0  0  0  0  0  0  0  0
   42.6182   12.9238   16.0026 C   0  0  0  0  0  0  0  0  0  0  0  0
   43.6537   14.0029   16.8875 S   0  0  0  0  0  0  0  0  0  0  0  0
   43.3490   15.3039   15.7549 C   0  0  0  0  0  0  0  0  0  0  0  0
   43.9545   16.5839   16.0827 C   0  0  0  0  0  0  0  0  0  0  0  0
   43.8281   17.5439   15.2935 O   0  0  0  0  0  0  0  0  0  0  0  0
   44.5843   16.6843   17.1532 O   0  0  0  0  0  0  0  0  0  0  0  0
   42.3570   11.5699   16.4901 C   0  0  0  0  0  0  0  0  0  0  0  0
   43.3812   10.7863   17.0615 C   0  0  0  0  0  0  0  0  0  0  0  0
   43.1217    9.4702   17.4919 C   0  0  0  0  0  0  0  0  0  0  0  0
   41.8380    8.9116   17.3361 C   0  0  0  0  0  0  0  0  0  0  0  0
   40.8012    9.6825   16.7627 C   0  0  0  0  0  0  0  0  0  0  0  0
   41.0683   11.0056   16.3685 C   0  0  0  0  0  0  0  0  0  0  0  0
   39.4993    9.1864   16.4875 N   0  0  0  0  0  0  0  0  0  0  0  0
   38.8411    8.1728   17.0756 C   0  0  0  0  0  0  0  0  0  0  0  0
   39.2648    7.5305   18.0353 O   0  0  0  0  0  0  0  0  0  0  0  0
   37.4515    7.8699   16.5046 C   0  0  0  0  0  0  0  0  0  0  0  0
   37.1153    6.3708   16.5049 C   0  0  0  0  0  0  0  0  0  0  0  0
   40.1821   15.8374   14.2309 H   0  0  0  0  0  0  0  0  0  0  0  0
   41.1786   17.1880   14.7425 H   0  0  0  0  0  0  0  0  0  0  0  0
   44.3754   11.1911   17.1611 H   0  0  0  0  0  0  0  0  0  0  0  0
   43.9151    8.8808   17.9260 H   0  0  0  0  0  0  0  0  0  0  0  0
   41.6753    7.8884   17.6411 H   0  0  0  0  0  0  0  0  0  0  0  0
   40.2623   11.5906   15.9527 H   0  0  0  0  0  0  0  0  0  0  0  0
   38.9952    9.6809   15.7651 H   0  0  0  0  0  0  0  0  0  0  0  0
   37.3838    8.2512   15.4842 H   0  0  0  0  0  0  0  0  0  0  0  0
   36.7128    8.4138   17.0942 H   0  0  0  0  0  0  0  0  0  0  0  0
   36.1349    6.1958   16.0618 H   0  0  0  0  0  0  0  0  0  0  0  0
   37.0982    5.9632   17.5167 H   0  0  0  0  0  0  0  0  0  0  0  0
   37.8447    5.8007   15.9280 H   0  0  0  0  0  0  0  0  0  0  0  0
  1  2  2  0
  2  3  1  0
  2  4  1  0
  4  5  1  0
  4 26  1  0
  4 27  1  0
  5  6  1  0
  6 11  2  0
  6  7  1  0
  7  8  1  0
  7  9  2  0
  9 10  1  0
  9 15  1  0
 10 11  1  0
 11 12  1  0
 12 13  2  0
 12 14  1  0
 15 20  1  0
 15 16  2  0
 16 17  1  0
 16 28  1  0
 17 18  2  0
 17 29  1  0
 18 19  1  0
 18 30  1  0
 19 20  2  0
 19 21  1  0
 20 31  1  0
 21 22  1  0
 21 32  1  0
 22 23  2  0
 22 24  1  0
 24 25  1  0
 24 33  1  0
 24 34  1  0
 25 35  1  0
 25 36  1  0
 25 37  1  0
M  CHG  2   3  -1  14  -1
M  END
>  <s_m_entry_id>  (1) 
493

>  <i_f3d_flags>  (1) 
0

>  <r_epik_Ionization_Penalty>  (1) 
  0.0001

>  <r_epik_State_Penalty>  (1) 
  0.0000

>  <i_epik_Tot_Q>  (1) 
-2

>  <s_m_job_name>  (1) 
glide-dock_SP_ptp1b_core_cons

>  <r_lp_tautomer_probability>  (1) 
1

>  <r_i_docking_score>  (1) 
-6.90389820084715

>  <r_i_glide_gscore>  (1) 
-6.90389820084715

>  <r_i_glide_emodel>  (1) 
-87.2958054914979

>  <index_string>  (1) 
18:0:0

$$$$
