19:0:0
     RDKit          3D

 50 54  0  0  1  0  0  0  0  0999 V2000
    5.5840   -0.5680   16.2410 C   0  0  0  0  0  0  0  0  0  0  0  0
    4.3230   -1.0540   16.1090 N   0  0  0  0  0  0  0  0  0  0  0  0
    3.7950   -0.3030   15.1280 C   0  0  0  0  0  0  0  0  0  0  0  0
    2.5080   -0.3960   14.6060 C   0  0  0  0  0  0  0  0  0  0  0  0
    1.5920   -1.3810   15.1040 N   0  0  0  0  0  0  0  0  0  0  0  0
    2.1670    0.4640   13.6000 N   0  0  0  0  0  0  0  0  0  0  0  0
    3.0430    1.3990   13.1110 C   0  0  0  0  0  0  0  0  0  0  0  0
    4.3380    1.4750   13.6610 C   0  0  0  0  0  0  0  0  0  0  0  0
    4.6490    0.6090   14.6530 N   0  0  0  0  0  0  0  0  0  0  0  0
    5.7930    0.4690   15.3350 C   0  0  0  0  0  0  0  0  0  0  0  0
    2.6270    2.3040   12.0200 C   0  0  0  0  0  0  0  0  0  0  0  0
    3.5610    2.7230   11.0590 C   0  0  0  0  0  0  0  0  0  0  0  0
    3.1820    3.5840   10.0250 C   0  0  0  0  0  0  0  0  0  0  0  0
    1.8600    4.0280    9.9400 C   0  0  0  0  0  0  0  0  0  0  0  0
    0.9160    3.6130   10.8900 C   0  0  0  0  0  0  0  0  0  0  0  0
    1.3010    2.7610   11.9280 C   0  0  0  0  0  0  0  0  0  0  0  0
   -0.4040    4.0720   10.8100 O   0  0  0  0  0  0  0  0  0  0  0  0
   -0.9490    4.6680    9.6280 C   0  0  0  0  0  0  0  0  0  0  0  0
    0.1050    5.3500    8.8070 C   0  0  0  0  0  0  0  0  0  0  0  0
   -0.2210    6.2350    7.9750 O   0  0  0  0  0  0  0  0  0  0  0  0
    1.4710    4.9440    8.9180 N   0  0  0  0  0  0  0  0  0  0  0  0
    0.2130   -1.5400   14.7470 C   0  0  0  0  0  0  0  0  0  0  0  0
   -0.4400   -2.7220   15.1060 C   0  0  0  0  0  0  0  0  0  0  0  0
   -1.7870   -2.9110   14.7880 C   0  0  0  0  0  0  0  0  0  0  0  0
   -2.5040   -1.9130   14.1090 C   0  0  0  0  0  0  0  0  0  0  0  0
   -1.8590   -0.7200   13.7510 C   0  0  0  0  0  0  0  0  0  0  0  0
   -0.5030   -0.5410   14.0740 C   0  0  0  0  0  0  0  0  0  0  0  0
   -3.8530   -2.0850   13.7830 O   0  0  0  0  0  0  0  0  0  0  0  0
   -4.3040   -3.0780   12.8720 C   0  0  0  0  0  0  0  0  0  0  0  0
   -2.5820    0.2720   13.0800 O   0  0  0  0  0  0  0  0  0  0  0  0
   -1.9850    1.1650   12.1500 C   0  0  0  0  0  0  0  0  0  0  0  0
    6.3309   -0.9389   16.9583 H   0  0  0  0  0  0  0  0  0  0  0  0
    1.9665   -2.0475   15.7942 H   0  0  0  0  0  0  0  0  0  0  0  0
    5.0695    2.2115   13.2972 H   0  0  0  0  0  0  0  0  0  0  0  0
    6.7142    1.0560   15.2055 H   0  0  0  0  0  0  0  0  0  0  0  0
    4.6011    2.3703   11.1204 H   0  0  0  0  0  0  0  0  0  0  0  0
    3.9226    3.9111    9.2803 H   0  0  0  0  0  0  0  0  0  0  0  0
    0.5613    2.4456   12.6785 H   0  0  0  0  0  0  0  0  0  0  0  0
   -1.4209    3.8827    9.0192 H   0  0  0  0  0  0  0  0  0  0  0  0
   -1.6835    5.4263    9.9368 H   0  0  0  0  0  0  0  0  0  0  0  0
    2.1735    5.3123    8.2609 H   0  0  0  0  0  0  0  0  0  0  0  0
    0.1103   -3.5089   15.6426 H   0  0  0  0  0  0  0  0  0  0  0  0
   -2.2892   -3.8478   15.0714 H   0  0  0  0  0  0  0  0  0  0  0  0
    0.0027    0.3952   13.7950 H   0  0  0  0  0  0  0  0  0  0  0  0
   -4.6953   -3.9396   13.4329 H   0  0  0  0  0  0  0  0  0  0  0  0
   -5.1007   -2.6601   12.2390 H   0  0  0  0  0  0  0  0  0  0  0  0
   -3.4651   -3.4030   12.2390 H   0  0  0  0  0  0  0  0  0  0  0  0
   -1.4537    1.9598   12.6941 H   0  0  0  0  0  0  0  0  0  0  0  0
   -1.2729    0.6141   11.5180 H   0  0  0  0  0  0  0  0  0  0  0  0
   -2.7662    1.6125   11.5180 H   0  0  0  0  0  0  0  0  0  0  0  0
  1  2  1  0
  1 10  2  0
  2  3  2  0
  3  4  1  0
  3  9  1  0
  4  5  1  0
  4  6  2  0
  5 22  1  0
  6  7  1  0
  7  8  2  0
  7 11  1  0
  8  9  1  0
  9 10  1  0
 11 12  2  0
 11 16  1  0
 12 13  1  0
 13 14  2  0
 14 15  1  0
 14 21  1  0
 15 16  2  0
 15 17  1  0
 17 18  1  0
 18 19  1  0
 19 21  1  0
 19 20  2  0
 22 23  2  0
 22 27  1  0
 23 24  1  0
 24 25  2  0
 25 26  1  0
 25 28  1  0
 26 27  2  0
 26 30  1  0
 28 29  1  0
 30 31  1  0
  1 32  1  0
  5 33  1  0
  8 34  1  0
 10 35  1  0
 12 36  1  0
 13 37  1  0
 16 38  1  0
 18 39  1  0
 18 40  1  0
 21 41  1  0
 23 42  1  0
 24 43  1  0
 27 44  1  0
 29 45  1  0
 29 46  1  0
 29 47  1  0
 31 48  1  0
 31 49  1  0
 31 50  1  0
M  END
>  <s_m_entry_id>  (1) 
704

>  <MODEL>  (1) 
1

>  <REMARK>  (1) 
 VINA RESULT:   -10.931      0.000      0.000
 INTER + INTRA:         -12.411
 INTER:                 -11.951
 INTRA:                  -0.460
 UNBOUND:                 1.077
  Name = /scratch/kmzp800/tmp67h2zdbo/tmpv8mzzo4k.pdb
  6 active torsions:
  status: ('A' for Active; 'I' for Inactive)
    1  A    between atoms: N2_5  and  C4_6
    2  A    between atoms: C7_9  and  O1_10
    3  A    between atoms: O1_10  and  C8_11
    4  A    between atoms: C9_12  and  O2_13
    5  A    between atoms: O2_13  and  C10_14
    6  A    between atoms: C12_17  and  C13_18
                            x       y       z     vdW  Elec       q    Type
                         _______ _______ _______ _____ _____    ______ ____

>  <TORSDO>  (1) 
F 4

>  <grid_id>  (1) 
syk-prepared

>  <grid_path>  (1) 
syk_vina.pdbqt

>  <grid_filename>  (1) 
syk_vina.pdbqt

>  <docking_score>  (1) 
-10.931

>  <compound_name>  (1) 
CHEMBL3265025

>  <index_string>  (1) 
19:0:0

>  <s_m_Source_Path>  (1) 
/projects/mai/users/kmzp800_harry/pmx_colab/docking_jobs/syk/vina_prep/output

>  <s_m_Source_File>  (1) 
ptp1b_docked_conformers.sdf

>  <i_m_Source_File_Index>  (1) 
528

$$$$
